 00 00 00 00 00 00 00 00 03 C0 00 00 00 00 00 00
 00 00 00 00 00 00 00 00 00 1F 00 07 C0 00 00 00
 00 03 C0 00 00 00 00 00 00 00 00 00 00 00 00 00
 00 00 FF 00 3F C0 00 00 00 00 03 C0 00 00 00 00
 00 00 00 00 00 00 00 00 00 00 00 FF 00 7F C0 00
 00 00 00 01 C0 00 00 00 00 00 00 00 00 00 00 00
 00 00 00 00 87 00 63 C0 00 00 00 00 00 00 00 00
 30 00 00 00 00 00 00 00 00 00 00 00 00 07 00 03
 C0 00 00 00 00 00 00 00 00 70 00 00 00 00 00 00
 00 00 00 00 00 00 07 00 03 C0 00 00 00 00 00 00
 00 00 70 00 00 00 00 00 00 00 00 00 00 00 00 07
 00 03 C0 3D FC 01 FC 07 C1 EF C0 FF 80 03 FC 01
 FE 07 9F 8F C0 1F C0 00 07 00 03 C0 7F FE 07 FF
 0F C7 FF E1 FF 80 07 FF E7 FF 0F FF FF E0 7F E0
 00 07 00 03 C0 7F 3F 07 87 8F C7 F9 F0 70 00 0F
 0F E7 0F 0F F7 FB E0 70 F0 00 07 00 03 C0 1C 0F
 0F 07 83 C1 E0 F0 70 00 0E 0F 0F 07 03 81 C0 E0
 E0 70 00 07 00 03 C0 1C 07 9E 03 C3 C1 E0 70 70
 00 0E 07 0F 07 03 81 C0 E0 E0 78 00 07 00 03 C0
 1C 07 9E 03 C3 C1 E0 70 70 00 0E 07 00 07 03 81
 C0 E1 E0 78 00 07 00 03 C0 1C 03 9E 01 C3 C1 E0
 70 70 00 0E 0F 00 3F 03 81 C0 E1 FF F8 00 07 00
 03 C0 1C 03 9E 01 C3 C1 E0 70 70 00 0F 0F 01 FF
 03 81 C0 E1 FF F8 00 07 00 03 C0 1C 03 9E 01 C3
 C1 E0 70 70 00 07 9E 07 E7 03 81 C0 E1 C0 00 00
 07 00 03 C0 1C 07 9E 01 C3 C1 E0 70 70 00 03 FC
 0F 07 03 81 C0 E1 E0 00 00 07 00 03 C0 1C 07 9E
 03 C3 C1 E0 70 70 00 01 F0 0E 07 03 81 C0 E1 E0
 00 00 07 00 03 C0 1C 07 0E 03 C3 C1 E0 70 70 00
 03 80 0E 07 03 81 C0 E1 E0 00 00 07 00 03 C0 1C
 0F 0F 07 83 C1 E0 70 70 00 03 F0 0E 07 03 81 C0
 E0 F0 18 00 0F 00 03 C0 1C 1E 07 87 83 C1 E0 70
 78 00 03 FF 0F 1F 03 81 C0 E0 F8 78 00 7F F0 3F
 FC 1F FC 07 FF 0F F7 F9 FC 7F 80 07 FF 8F FF EF
 E7 F3 FC 7F F0 00 7F F0 3F FC 1F F0 01 FC 0F F7
 F9 FC 3F 80 0F 1F C7 E7 EF E7 F3 FC 1F E0 00 00
 00 00 00 1C 00 00 00 00 00 00 00 00 00 1E 03 C0
 00 00 00 00 00 00 00 00 00 00 00 00 1C 00 00 00
 00 00 00 00 00 00 1C 03 C0 00 00 00 00 00 00 00
 00 00 00 00 00 1C 00 00 00 00 00 00 00 00 00 1C
 03 80 00 00 00 00 00 00 00 00 00 00 00 00 1C 00
 00 00 00 00 00 00 00 00 1E 03 80 00 00 00 00 00
 00 00 00 00 00 00 00 1C 00 00 00 00 00 00 00 00
 00 1F 0F 00 00 00 00 00 00 00 00 00 00 00 00 00
 7F 80 00 00 00 00 00 00 00 00 0F FE 00 00 00 00
 00 00 00 00 00 00 00 00 00 7F 80 00 00 00 00 00
 00 00 00 03 F8 00 00 00 00 00 00 00 00 00 00 00
 00 00 00 00 00 00 00 00 00 00 00 00 00 00 00 00
 00 00 00 00 00 00 00 00 00 00 00 00 00 00 00 00
 00 00 00 00 00 00 00 00 00 00 00 00 00 00 00 00
 00 00 00 00 00 00 00 00 00 00 00 00 00 00 00 00
 00 00 00 00 00 00 00 00 00 00 00 00 00 00 00 00
 00 00 00 00 00 00 00 00 00 00 00 00 00 00 00 00
 00 00 00 00 00 00 00 00 00 00 00 00 00 00 00 00
 00 00 00 00 00 00 00 00 00 00 00
