 00 00 00 00 00 00 00 00 00 F0 00 00 00 00 00 00
 00 00 00 00 00 00 00 00 00 1F F0 01 F0 00 00 00
 00 00 F0 00 00 00 00 00 00 00 00 00 00 00 00 00
 00 00 3F F8 0F F0 00 00 00 00 00 F0 00 00 00 00
 00 00 00 00 00 00 00 00 00 00 00 78 7C 1F F0 00
 00 00 00 00 70 00 00 00 00 00 00 00 00 00 00 00
 00 00 00 00 78 3C 18 F0 00 00 00 00 00 00 00 00
 0C 00 00 00 00 00 00 00 00 00 00 00 00 78 1E 00
 F0 00 00 00 00 00 00 00 00 1C 00 00 00 00 00 00
 00 00 00 00 00 00 78 1E 00 F0 00 00 00 00 00 00
 00 00 1C 00 00 00 00 00 00 00 00 00 00 00 00 00
 1E 00 F0 0F 7F 00 7F 01 F0 7B F0 3F E0 00 FF 00
 7F 81 E7 E3 F0 07 F0 00 00 1E 00 F0 1F FF 81 FF
 C3 F1 FF F8 7F E0 01 FF F9 FF C3 FF FF F8 1F F8
 00 00 3C 00 F0 1F CF C1 E1 E3 F1 FE 7C 1C 00 03
 C3 F9 C3 C3 FD FE F8 1C 3C 00 00 3C 00 F0 07 03
 C3 C1 E0 F0 78 3C 1C 00 03 83 C3 C1 C0 E0 70 38
 38 1C 00 00 78 00 F0 07 01 E7 80 F0 F0 78 1C 1C
 00 03 81 C3 C1 C0 E0 70 38 38 1E 00 00 70 00 F0
 07 01 E7 80 F0 F0 78 1C 1C 00 03 81 C0 01 C0 E0
 70 38 78 1E 00 00 F0 00 F0 07 00 E7 80 70 F0 78
 1C 1C 00 03 83 C0 0F C0 E0 70 38 7F FE 00 01 E0
 00 F0 07 00 E7 80 70 F0 78 1C 1C 00 03 C3 C0 7F
 C0 E0 70 38 7F FE 00 03 C0 00 F0 07 00 E7 80 70
 F0 78 1C 1C 00 01 E7 81 F9 C0 E0 70 38 70 00 00
 0F 00 00 F0 07 01 E7 80 70 F0 78 1C 1C 00 00 FF
 03 C1 C0 E0 70 38 78 00 00 1E 06 00 F0 07 01 E7
 80 F0 F0 78 1C 1C 00 00 7C 03 81 C0 E0 70 38 78
 00 00 3C 06 00 F0 07 01 C3 80 F0 F0 78 1C 1C 00
 00 E0 03 81 C0 E0 70 38 78 00 00 78 06 00 F0 07
 03 C3 C1 E0 F0 78 1C 1C 00 00 FC 03 81 C0 E0 70
 38 3C 06 00 FF FE 00 F0 07 07 81 E1 E0 F0 78 1C
 1E 00 00 FF C3 C7 C0 E0 70 38 3E 1E 00 FF FE 0F
 FF 07 FF 01 FF C3 FD FE 7F 1F E0 01 FF E3 FF FB
 F9 FC FF 1F FC 00 FF FE 0F FF 07 FC 00 7F 03 FD
 FE 7F 0F E0 03 C7 F1 F9 FB F9 FC FF 07 F8 00 00
 00 00 00 07 00 00 00 00 00 00 00 00 00 07 80 F0
 00 00 00 00 00 00 00 00 00 00 00 00 07 00 00 00
 00 00 00 00 00 00 07 00 F0 00 00 00 00 00 00 00
 00 00 00 00 00 07 00 00 00 00 00 00 00 00 00 07
 00 E0 00 00 00 00 00 00 00 00 00 00 00 00 07 00
 00 00 00 00 00 00 00 00 07 80 E0 00 00 00 00 00
 00 00 00 00 00 00 00 07 00 00 00 00 00 00 00 00
 00 07 C3 C0 00 00 00 00 00 00 00 00 00 00 00 00
 1F E0 00 00 00 00 00 00 00 00 03 FF 80 00 00 00
 00 00 00 00 00 00 00 00 00 1F E0 00 00 00 00 00
 00 00 00 00 FE 00 00 00 00 00 00 00 00 00 00 00
 00 00 00 00 00 00 00 00 00 00 00 00 00 00 00 00
 00 00 00 00 00 00 00 00 00 00 00 00 00 00 00 00
 00 00 00 00 00 00 00 00 00 00 00 00 00 00 00 00
 00 00 00 00 00 00 00 00 00 00 00 00 00 00 00 00
 00 00 00 00 00 00 00 00 00 00 00 00 00 00 00 00
 00 00 00 00 00 00 00 00 00 00 00 00 00 00 00 00
 00 00 00 00 00 00 00 00 00 00 00 00 00 00 00 00
 00 00 00 00 00 00 00 00 00 00 00
