 FF FF C0 00 00 00 00 00 00 00 00 00 00 00 00 00
 00 00 00 00 00 00 00 00 00 FF FF C0 00 00 00 00
 00 00 00 00 00 00 00 00 00 00 00 00 00 00 00 00
 00 00 FF FF C0 00 00 00 00 00 00 00 00 00 00 00
 00 00 00 00 00 00 00 00 00 00 00 1C 01 C0 00 00
 00 00 00 00 00 00 00 00 00 00 00 00 00 00 00 00
 00 00 00 00 1C 01 C0 00 00 00 00 00 00 00 00 00
 00 00 00 00 00 00 00 00 00 00 00 00 00 1C 01 C0
 00 00 00 00 00 00 00 00 00 00 00 00 00 00 00 00
 00 00 00 00 00 00 1C 00 00 00 00 00 00 00 00 00
 00 00 00 00 00 00 00 00 00 00 00 00 00 00 00 1C
 00 00 FF 80 3F EF F0 FE 00 00 00 00 00 00 00 00
 00 00 00 00 00 00 00 00 1C 0E 01 FF C0 7F EF F0
 FE 00 00 00 00 00 00 00 00 00 00 00 00 00 00 00
 00 1C 0E 03 C3 E0 F0 E3 C0 38 00 00 00 00 00 00
 00 00 00 00 00 00 00 00 00 00 1C 0E 03 C1 E1 E0
 E1 E0 30 00 00 00 00 00 00 00 00 00 00 00 00 00
 00 00 00 1F FE 03 C1 E1 E0 E1 E0 70 00 00 00 00
 00 00 00 00 00 00 00 00 00 00 00 00 1F FE 03 C1
 E1 F0 01 E0 70 00 00 00 00 00 00 00 00 00 00 00
 00 00 00 00 00 1C 0E 00 01 E1 F8 00 F0 E0 00 00
 00 00 00 00 00 00 00 00 00 00 00 00 00 00 1C 0E
 00 1F E0 FE 00 F0 E0 00 00 00 00 00 00 00 00 00
 00 00 00 00 00 00 00 1C 0E 00 FF E0 7F 80 78 C0
 00 00 00 00 00 00 00 00 00 00 00 00 00 00 00 00
 1C 00 01 F9 E0 3F C0 79 C0 00 00 00 00 00 00 00
 00 00 00 00 00 00 00 00 00 1C 00 03 E1 E0 0F E0
 79 C0 00 00 00 00 00 00 00 00 00 00 00 00 00 00
 00 00 1C 00 E7 81 E0 03 E0 3F 80 00 00 00 00 00
 00 00 00 00 00 00 00 00 00 00 00 1C 00 E7 81 E1
 C1 E0 3F 80 00 00 00 00 00 00 00 00 00 00 00 00
 00 00 00 00 1C 00 E7 81 E1 C0 E0 1F 00 00 00 00
 00 00 00 00 00 00 00 00 00 00 00 00 00 1C 00 E7
 83 E1 C1 E0 1F 00 00 00 00 00 00 00 00 00 00 00
 00 00 00 00 00 00 3C 01 E7 EF E1 C3 E0 1F 00 00
 00 00 00 00 00 00 00 00 00 00 00 00 00 00 00 FF
 FF E3 FF FD FF C0 0E 00 00 00 00 00 00 00 00 00
 00 00 00 00 00 00 00 00 FF FF E1 F8 FC FF 80 0E
 00 00 00 00 00 00 00 00 00 00 00 00 00 00 00 00
 00 00 00 00 00 00 00 00 0C 00 00 00 00 00 00 00
 00 00 00 00 00 00 00 00 00 00 00 00 00 00 00 00
 00 1C 00 00 00 00 00 00 00 00 00 00 00 00 00 00
 00 00 00 00 00 00 00 00 00 00 18 00 00 00 00 00
 00 00 00 00 00 00 00 00 00 00 00 00 00 00 00 00
 00 00 02 38 00 00 00 00 00 00 00 00 00 00 00 00
 00 00 00 00 00 00 00 00 00 00 00 07 F0 00 00 00
 00 00 00 00 00 00 00 00 00 00 00 00 00 00 00 00
 00 00 00 00 07 F0 00 00 00 00 00 00 00 00 00 00
 00 00 00 00 00 00 00 00 00 00 00 00 00 07 E0 00
 00 00 00 00 00 00 00 00 00 00 00 00 00 00 00 00
 00 00 00 00 00 00 03 80 00 00 00 00 00 00 00 00
 00 00 00 00 00 00 00 00 00 00 00 00 00 00 00 00
 00 00 00 00 00 00 00 00 00 00 00 00 00 00 00 00
 00 00 00 00 00 00 00 00 00 00 00 00 00 00 00 00
 00 00 00 00 00 00 00 00 00 00 00
