 FF FF C0 3F F0 7F F8 00 00 00 00 00 00 00 00 00
 00 00 00 00 00 00 00 00 00 FF FF C0 7F F8 7F FF
 80 00 00 00 00 00 00 00 00 00 00 00 00 00 00 00
 00 00 FF FF C1 F8 F8 7F FF E0 00 00 00 00 00 00
 00 00 00 00 00 00 00 00 00 00 00 1C 01 C1 E0 38
 1E 03 F0 00 00 00 00 00 00 00 00 00 00 00 00 00
 00 00 00 00 1C 01 C3 C0 38 1E 00 F8 00 00 00 00
 00 00 00 00 00 00 00 00 00 00 00 00 00 1C 01 C3
 C0 38 1E 00 7C 00 00 00 00 00 00 00 00 00 00 00
 00 00 00 00 00 00 1C 00 03 C0 38 1E 00 3C 00 00
 00 00 00 00 00 00 00 00 00 00 00 00 00 00 00 1C
 00 03 C0 00 1E 00 3E 00 00 00 00 00 00 00 00 00
 00 00 00 00 00 00 00 00 1C 0E 03 E0 00 1E 00 3E
 00 00 00 00 00 00 00 00 00 00 00 00 00 00 00 00
 00 1C 0E 03 F0 00 1E 00 1E 00 00 00 00 00 00 00
 00 00 00 00 00 00 00 00 00 00 1C 0E 01 FE 00 1E
 00 1E 00 00 00 00 00 00 00 00 00 00 00 00 00 00
 00 00 00 1F FE 00 FF 80 1E 00 1E 00 00 00 00 00
 00 00 00 00 00 00 00 00 00 00 00 00 1F FE 00 7F
 E0 1E 00 1E 00 00 00 00 00 00 00 00 00 00 00 00
 00 00 00 00 00 1C 0E 00 1F F0 1E 00 1E 00 00 00
 00 00 00 00 00 00 00 00 00 00 00 00 00 00 1C 0E
 00 07 F8 1E 00 1E 00 00 00 00 00 00 00 00 00 00
 00 00 00 00 00 00 00 1C 0E 00 01 F8 1E 00 1E 00
 00 00 00 00 00 00 00 00 00 00 00 00 00 00 00 00
 1C 00 00 00 7C 1E 00 3E 00 00 00 00 00 00 00 00
 00 00 00 00 00 00 00 00 00 1C 00 03 00 3C 1E 00
 3E 00 00 00 00 00 00 00 00 00 00 00 00 00 00 00
 00 00 1C 00 E3 00 3C 1E 00 3C 00 00 00 00 00 00
 00 00 00 00 00 00 00 00 00 00 00 1C 00 E3 80 3C
 1E 00 7C 00 00 00 00 00 00 00 00 00 00 00 00 00
 00 00 00 00 1C 00 E3 80 38 1E 00 F8 00 00 00 00
 00 00 00 00 00 00 00 00 00 00 00 00 00 1C 00 E3
 80 78 1E 01 F0 00 00 00 00 00 00 00 00 00 00 00
 00 00 00 00 00 00 3C 01 E3 C1 F0 1E 0F E0 00 00
 00 00 00 00 00 00 00 00 00 00 00 00 00 00 00 FF
 FF E3 FF E0 7F FF C0 00 00 00 00 00 00 00 00 00
 00 00 00 00 00 00 00 00 FF FF E3 FF C0 7F FE 00
 00 00 00 00 00 00 00 00 00 00 00 00 00 00 00 00
 00 00 00 00 00 00 00 00 00 00 00 00 00 00 00 00
 00 00 00 00 00 00 00 00 00 00 00 00 00 00 00 00
 00 00 00 00 00 00 00 00 00 00 00 00 00 00 00 00
 00 00 00 00 00 00 00 00 00 00 00 00 00 00 00 00
 00 00 00 00 00 00 00 00 00 00 00 00 00 00 00 00
 00 00 00 00 00 00 00 00 00 00 00 00 00 00 00 00
 00 00 00 00 00 00 00 00 00 00 00 00 00 00 00 00
 00 00 00 00 00 00 00 00 00 00 00 00 00 00 00 00
 00 00 00 00 00 00 00 00 00 00 00 00 00 00 00 00
 00 00 00 00 00 00 00 00 00 00 00 00 00 00 00 00
 00 00 00 00 00 00 00 00 00 00 00 00 00 00 00 00
 00 00 00 00 00 00 00 00 00 00 00 00 00 00 00 00
 00 00 00 00 00 00 00 00 00 00 00 00 00 00 00 00
 00 00 00 00 00 00 00 00 00 00 00 00 00 00 00 00
 00 00 00 00 00 00 00 00 00 00 00 00 00 00 00 00
 00 00 00 00 00 00 00 00 00 00 00
