 00 00 00 00 00 00 00 00 01 C0 00 00 00 00 00 00
 00 00 00 00 00 00 00 00 00 00 00 00 00 00 00 00
 00 0F C0 00 00 00 00 00 00 00 00 00 00 00 00 00
 00 00 FF 81 FF 80 00 00 00 00 0F C0 00 00 00 00
 00 00 00 00 00 00 00 00 00 00 00 FF 81 FF 80 00
 00 00 00 01 C0 00 00 00 00 00 00 00 00 00 00 00
 00 00 00 00 FF 81 FF 80 00 00 00 00 01 C0 00 00
 00 00 00 00 00 00 00 00 00 00 00 00 00 1C 00 3C
 00 00 00 00 00 01 C0 00 00 00 00 00 00 00 00 00
 00 00 00 00 00 00 1C 00 3C 00 00 00 00 00 01 C0
 00 00 00 00 00 00 00 00 00 00 00 00 00 00 00 1C
 00 3C 00 00 00 00 00 01 C0 00 00 00 00 00 00 00
 00 00 00 00 00 00 00 00 1C 00 3C 00 00 00 00 00
 01 C0 00 00 00 00 00 00 00 00 00 00 00 00 00 00
 00 1C 00 3C 03 FE 03 E7 81 FF C0 00 00 00 00 00
 00 00 00 00 00 00 00 00 00 00 1C 00 3C 07 FF 0F
 EF 83 FF C0 00 00 00 00 00 00 00 00 00 00 00 00
 00 00 00 1C 00 3C 0F 0F 0F FF 87 C1 C0 00 00 00
 00 00 00 00 00 00 00 00 00 00 00 00 1C 00 3C 0F
 07 81 FD 8F 01 C0 00 00 00 00 00 00 00 00 00 00
 00 00 00 00 00 1F FF FC 0F 07 81 F0 1E 01 C0 00
 00 00 00 00 00 00 00 00 00 00 00 00 00 00 1F FF
 FC 0F 07 81 E0 1E 01 C0 00 00 00 00 00 00 00 00
 00 00 00 00 00 00 00 1C 00 3C 00 0F 81 E0 1C 01
 C0 00 00 00 00 00 00 00 00 00 00 00 00 00 00 00
 1C 00 3C 00 7F 81 E0 3C 01 C0 00 00 00 00 00 00
 00 00 00 00 00 00 00 00 00 1C 00 3C 03 FF 81 E0
 3C 01 C0 00 00 00 00 00 00 00 00 00 00 00 00 00
 00 00 1C 00 3C 0F E7 81 E0 3C 01 C0 00 00 00 00
 00 00 00 00 00 00 00 00 00 00 00 1C 00 3C 1F 07
 81 E0 3C 01 C0 00 00 00 00 00 00 00 00 00 00 00
 00 00 00 00 1C 00 3C 1E 07 81 E0 3C 01 C0 00 00
 00 00 00 00 00 00 00 00 00 00 00 00 00 1C 00 3C
 1C 07 81 E0 1E 01 C0 00 00 00 00 00 00 00 00 00
 00 00 00 00 00 00 1C 00 3C 1C 07 81 E0 1E 01 C0
 00 00 00 00 00 00 00 00 00 00 00 00 00 00 00 1C
 00 3C 1E 0F 81 E0 1F 83 C0 00 00 00 00 00 00 00
 00 00 00 00 00 00 00 00 3E 00 3C 1F 7F 81 E0 0F
 FF E0 00 00 00 00 00 00 00 00 00 00 00 00 00 00
 00 FF 81 FF 9F FF EF FC 07 FF F8 00 00 00 00 00
 00 00 00 00 00 00 00 00 00 00 FF 81 FF 8F E7 EF
 FC 03 F9 F8 00 00 00 00 00 00 00 00 00 00 00 00
 00 00 00 00 00 00 00 00 00 00 00 00 00 00 00 00
 00 00 00 00 00 00 00 00 00 00 00 00 00 00 00 00
 00 00 00 00 00 00 00 00 00 00 00 00 00 00 00 00
 00 00 00 00 00 00 00 00 00 00 00 00 00 00 00 00
 00 00 00 00 00 00 00 00 00 00 00 00 00 00 00 00
 00 00 00 00 00 00 00 00 00 00 00 00 00 00 00 00
 00 00 00 00 00 00 00 00 00 00 00 00 00 00 00 00
 00 00 00 00 00 00 00 00 00 00 00 00 00 00 00 00
 00 00 00 00 00 00 00 00 00 00 00 00 00 00 00 00
 00 00 00 00 00 00 00 00 00 00 00 00 00 00 00 00
 00 00 00 00 00 00 00 00 00 00 00 00 00 00 00 00
 00 00 00 00 00 00 00 00 00 00 00 00 00 00 00 00
 00 00 00 00 00 00 00 00 00 00 00
