 00 00 00 00 00 00 00 70 00 00 00 00 00 00 00 00
 00 00 00 00 00 00 00 00 01 C0 00 00 00 00 00 00
 00 00 00 00 00 00 00 00 00 00 00 00 00 00 00 00
 00 00 00 00 00 00 00 00 03 F0 00 00 00 00 00 00
 00 00 00 00 00 00 00 00 00 00 0F C0 00 00 00 00
 00 00 00 00 00 00 00 00 00 00 00 00 00 00 00 00
 00 00 00 00 FF F0 00 00 00 00 03 F0 00 00 00 00
 00 00 00 00 00 00 00 00 00 00 00 00 0F C0 00 00
 00 00 00 00 00 00 00 00 00 00 00 00 00 00 00 00
 00 00 00 00 00 00 FF FE 00 00 00 00 00 70 00 00
 00 00 00 00 00 00 00 00 00 00 00 00 00 00 01 C0
 00 00 00 00 00 00 00 00 00 00 00 00 00 00 00 00
 00 00 00 00 00 00 00 00 FF FF 80 00 00 00 00 70
 00 00 00 00 00 00 00 00 00 00 00 00 00 00 00 00
 01 C0 00 00 00 00 00 00 00 00 00 00 00 00 00 00
 00 00 00 00 00 00 00 00 00 00 1C 0F 80 00 00 00
 00 70 00 00 00 00 00 00 00 00 00 00 00 00 00 00
 00 00 01 C0 00 00 00 00 00 00 00 00 00 00 00 00
 00 00 00 00 00 00 00 00 00 00 00 00 1C 07 C0 00
 00 00 00 70 00 00 00 00 00 00 00 00 00 00 00 00
 00 00 00 00 01 C0 00 00 00 00 C0 0C 00 00 00 00
 00 00 00 00 00 00 00 00 00 00 00 00 00 00 1C 03
 C0 00 00 00 00 70 00 00 00 00 00 00 00 00 00 00
 00 00 00 00 00 00 01 C0 00 00 00 01 C0 1C 00 00
 00 00 00 00 00 00 00 00 00 00 00 00 00 00 00 00
 1C 03 C0 00 00 00 00 70 00 00 00 00 00 00 00 00
 00 00 00 00 00 00 00 00 01 C0 00 00 00 01 C0 1C
 00 00 00 00 00 00 00 00 00 00 00 00 00 00 00 00
 00 00 1C 03 C7 C0 F0 1F F0 73 F8 00 01 E7 E1 FC
 00 FF 00 F0 3E 03 FE 03 FC 00 01 DF E0 7C 0F 83
 C0 3C 00 7F 80 3C FE 00 00 00 00 00 00 00 00 00
 00 00 00 00 1C 03 CF C3 F0 3F F0 7F FC 00 07 FF
 F7 FC 03 FF C3 F0 7E 07 FE 0F FE 00 01 FF F0 FC
 1F 8F FF FF F0 FF E0 FF FF 00 00 00 00 00 00 00
 00 00 00 00 00 00 1C 03 CF C3 F0 78 70 7F FE 00
 07 FF FF FE 07 C3 E3 F0 7E 0F 0E 1F 1F 00 01 F1
 F8 FC 1F 8F FF FF F1 F1 F0 FF FF 00 00 00 00 00
 00 00 00 00 00 00 00 00 1C 03 C3 C0 70 78 70 78
 3E 00 01 F0 7C 1E 07 81 E0 70 1E 1E 0E 1E 0F 00
 01 C0 78 3C 07 83 C0 3C 03 C0 F8 3E 0F 80 00 00
 00 00 00 00 00 00 00 00 00 00 1C 07 C3 C0 70 70
 30 70 1E 00 01 E0 78 1E 0F 00 F0 70 1E 1E 0E 3C
 07 00 01 C0 7C 3C 07 83 C0 3C 07 C0 78 3C 07 80
 00 00 00 00 00 00 00 00 00 00 00 00 1C 0F 83 C0
 70 78 00 70 1E 00 01 E0 38 0E 0F 00 F0 70 1E 1F
 00 3C 07 80 01 C0 3C 3C 07 83 C0 3C 07 80 7C 3C
 07 80 00 00 00 00 00 00 00 00 00 00 00 00 1E 3F
 03 C0 70 7C 00 70 1E 00 01 E0 38 0E 0F 00 F0 70
 1E 1F 80 3F FF 80 01 C0 3C 3C 07 83 C0 3C 07 80
 3C 3C 07 80 00 00 00 00 00 00 00 00 00 00 00 00
 1F FE 03 C0 70 7F 00 70 1E 00 01 E0 38 0E 1E 00
 78 70 1E 0F E0 7F FF 80 01 C0 1C 3C 07 83 C0 3C
 07 80 3C 3C 07 80 00 00 00 00 00 00 00 00 00 00
 00 00 1F F8 03 C0 70 3F C0 70 1E 00 01 E0 38 0E
 1E 00 78 70 1E 07 F8 7F FF 80 01 C0 1C 3C 07 83
 C0 3C 07 80 3C 3C 07 80 00 00 00 00 00 00 00 00
 00 00 00 00 1C 00 03 C0 70 0F F0 70 1E 00 01 E0
 38 0E 1E 00 78 70 1E 03 FC 78 00 00 01 C0 1C 3C
 07 83 C0 3C 07 80 3C 3C 07 80 00 00 00 00 00 00
 00 00 00 00 00 00 1C 00 03 C0 70 03 F0 70 1E 00
 01 E0 38 0E 1E 00 78 70 1E 00 FE 78 00 00 01 C0
 1C 3C 07 83 C0 3C 07 80 3C 3C 07 80 00 00 00 00
 00 00 00 00 00 00 00 00 1C 00 03 C0 70 00 F8 70
 1E 00 01 E0 38 0E 0F 00 F0 70 1E 00 3E 38 00 00
 01 C0 3C 3C 07 83 C0 3C 07 80 3C 3C 07 80 00 00
 00 00 00 00 00 00 00 00 00 00 1C 00 03 C0 70 60
 78 70 1E 00 01 E0 38 0E 0F 00 F0 70 1E 1C 1E 3C
 00 00 01 C0 3C 3C 07 83 C0 3C 07 80 7C 3C 07 80
 00 00 00 00 00 00 00 00 00 00 00 00 1C 00 03 C0
 70 60 78 70 1E 00 01 E0 38 0E 0F 00 F0 78 1E 1C
 0E 3E 00 00 01 C0 78 3C 07 83 C0 3C 07 C0 78 3C
 07 80 00 00 00 00 00 00 00 00 00 00 00 00 1C 00
 03 E0 F0 60 70 70 1E 00 01 E0 38 0E 07 81 E0 78
 1E 1C 1E 1F 03 80 01 C0 F8 3E 07 83 C0 3C 03 C0
 F8 3C 07 80 00 00 00 00 00 00 00 00 00 00 00 00
 3E 00 03 FF F8 70 F0 F8 1E 00 01 E0 7C 1F 07 C3
 E0 7F FE 1C 3E 1F CF 80 01 C3 F0 1F FF 83 F3 3F
 31 F1 F0 3C 07 80 00 00 00 00 00 00 00 00 00 00
 00 00 FF C0 01 FF FE 7F E3 FE 7F C0 07 F9 FE 7F
 C3 FF C0 3F FF 9F FC 0F FF 00 01 FF E0 1F FF E1
 FF 1F F0 FF E0 FF 1F E0 00 00 00 00 00 00 00 00
 00 00 00 00 FF C0 00 FE 7E 7F C3 FE 7F C0 07 F9
 FE 7F C0 FF 00 1F DF 8F F8 03 FC 00 01 FF 00 0F
 E7 E1 FE 1F E0 7F 80 FF 1F E0 00 00 00 00 00 00
 00 00 00 00 00 00 00 00 00 00 00 00 00 00 00 00
 00 00 00 00 00 00 00 00 00 00 00 00 00 00 00 00
 00 00 00 00 00 00 00 00 00 00 00 00 00 00 00 00
 00 00 00 00 00 00 00 00 00 00 00 00 00 00 00 00
 00 00 00 00 00 00 00 00 00 00 00 00 00 00 00 00
 00 00 00 00 00 00 00 00 00 00 00 00 00 00 00 00
 00 00 00 00 00 00 00 00 00 00 00 00 00 00 00 00
 00 00 00 00 00 00 00 00 00 00 00 00 00 00 00 00
 00 00 00 00 00 00 00 00 00 00 00 00 00 00 00 00
 00 00 00 00 00 00 00 00 00 00 00 00 00 00 00 00
 00 00 00 00 00 00 00 00 00 00 00 00 00 00 00 00
 00 00 00 00 00 00 00 00 00 00 00 00 00 00 00 00
 00 00 00 00 00 00 00 00 00 00 00 00 00 00 00 00
 00 00 00 00 00 00 00 00 00 00 00 00 00 00 00 00
 00 00 00 00 00 00 00 00 00 00 00 00 00 00 00 00
 00 00 00 00 00 00 00 00 00 00 00 00 00 00 00 00
 00 00 00 00 00 00 00 00 00 00 00 00 00 00 00 00
 00 00 00 00 00 00 00 00 00 00 00 00 00 00 00 00
 00 00 00 00 00 00 00 00 00 00 00 00 00 00 00 00
 00 00 00 00 00 00 00 00 00 00 00 00 00 00 00 00
 00 00 00 00 00 00 00 00 00 00 00 00 00 00 00 00
 00 00 00 00 00 00 00 00 00 00 00 00 00 00 00 00
 00 00 00 00 00 00 00 00 00 00 00 00 00 00 00 00
 00 00 00 00 00 00 00 00 00 00 00 00 00 00 00 00
 00 00 00 00 00 00 00 00 00 00 00 00 00 00 00 00
 00 00 00 00 00 00 00 00 00 00 00 00 00 00 00 00
 00 00 00 00 00 00 00 00 00 00 00 00 00 00 00 00
 00 00 00 00 00 00 00 00 00 00 00 00 00 00 00 00
 00 00 00 00 00 00 00 00 00 00 00 00 00 00 00 00
 00 00 00 00 00 00 00 00 00 00 00 00 00 00 00 00
 00 00 00 00 00 00 00 00 00 00 00 00 00 00 00 00
 00 00 00 00 00 00 00 00 00 00 00 00 00 00 00 00
 00 00 00 00 00 00 00 00 00 00 00 00 00 00 00 00
 00 00 00 00 00 00 00 00 00 00 00 00 00 00 00 00
 00 00 00 00 00 00 00 00 00 00 00 00 00 00 00 00
 00 00 00 00 00 00 00 00 00 00 00 00 00 00 00 00
 00 00 00 00 00 00 00 00 00 00 00 00 00 00 00 00
 00 00 00 00 00 00 00 00 00 00 00 00 00 00 00 00
 00 00 00 00 00 00 00 00 00 00 00 00 00 00 00 00
 00 00 00 00 00 00 00 00 00 00 00 00 00 00 00 00
 00 00 00 00 00 00 00 00 00 00 00 00 00 00 00 00
 18 00 00 00 00 00 00 00 00 00 00 00 00 00 00 00
 00 00 00 00 00 00 00 00 00 00 00 00 00 00 00 00
 00 00 00 00 00 00 00 00 00 00 00 00 00 00 00 00
 00 00 38 00 00 00 00 00 00 00 00 00 00 00 00 00
 00 00 00 00 00 00 00 00 00 00 00 00 00 00 00 00
 00 00 00 00 00 00 00 00 00 00 00 00 00 00 00 00
 00 00 00 00 38 00 00 00 00 00 00 00 00 00 00 00
 00 00 00 00 00 00 00 00 00 00 00 00 00 00 00 00
 00 00 00 00 00 00 00 00 00 00 00 00 00 00 00 00
 00 00 00 00 00 00 78 00 7F 80 00 0F F8 0F F0 1E
 7F FC 3F 87 F8 00 00 00 00 00 00 00 00 00 00 00
 00 00 00 00 00 00 00 00 00 00 00 00 00 00 00 00
 00 00 00 00 00 00 00 00 FF E1 FF C0 00 1F F8 1F
 F8 7E FF FC 3F 8F FC 00 00 00 00 00 00 00 00 00
 00 00 00 00 00 00 00 00 00 00 00 00 00 00 00 00
 00 00 00 00 00 00 00 00 00 00 FF E3 E3 E0 00 3C
 38 3C 3C 7F FC F0 0C 1E 1E 00 00 00 00 00 00 00
 00 00 00 00 00 00 00 00 00 00 00 00 00 00 00 00
 00 00 00 00 00 00 00 00 00 00 00 00 38 07 C0 F0
 00 3C 38 78 1C 0F CC F0 1C 3C 0E 00 00 00 00 00
 00 00 00 00 00 00 00 00 00 00 00 00 00 00 00 00
 00 00 00 00 00 00 00 00 00 00 00 00 00 00 38 07
 80 F0 00 38 18 70 1E 0F 80 78 1C 38 0F 00 00 00
 00 00 00 00 00 00 00 00 00 00 00 00 00 00 00 00
 00 00 00 00 00 00 00 00 00 00 00 00 00 00 00 00
 38 0F 80 78 00 3C 00 F0 1E 0F 00 78 18 78 0F 00
 00 00 00 00 00 00 00 00 00 00 00 00 00 00 00 00
 00 00 00 00 00 00 00 00 00 00 00 00 00 00 00 00
 00 00 38 0F 00 78 00 3E 00 FF FE 0E 00 78 38 7F
 FF 00 00 00 00 00 00 00 00 00 00 00 00 00 00 00
 00 00 00 00 00 00 00 00 00 00 00 00 00 00 00 00
 00 00 00 00 38 0F 00 78 00 3F 80 FF FE 0E 00 3C
 30 7F FF 00 00 00 00 00 00 00 00 00 00 00 00 00
 00 00 00 00 00 00 00 00 00 00 00 00 00 00 00 00
 00 00 00 00 00 00 38 0F 00 78 00 1F E0 FF FE 0E
 00 3C 70 7F FF 00 00 00 00 00 00 00 00 00 00 00
 00 00 00 00 00 00 00 00 00 00 00 00 00 00 00 00
 00 00 00 00 00 00 00 00 38 0F 00 78 00 07 F8 E0
 00 0E 00 1C 70 70 00 00 00 00 00 00 00 00 00 00
 00 00 00 00 00 00 00 00 00 00 00 00 00 00 00 00
 00 00 00 00 00 00 00 00 00 00 38 0F 00 78 00 01
 F8 F0 00 0E 00 1E 60 78 00 00 00 00 00 00 00 00
 00 00 00 00 00 00 00 00 00 00 00 00 00 00 00 00
 00 00 00 00 00 00 00 00 00 00 00 00 38 0F 00 78
 00 00 7C F0 00 0E 00 1E E0 78 00 00 00 00 00 00
 00 00 00 00 00 00 00 00 00 00 00 00 00 00 00 00
 00 00 00 00 00 00 00 00 00 00 00 00 00 00 38 0F
 80 78 00 30 3C F0 00 0E 00 0E C0 78 00 00 00 00
 00 00 00 00 00 00 00 00 00 00 00 00 00 00 00 00
 00 00 00 00 00 00 00 00 00 00 00 00 00 00 00 00
 38 07 80 F0 00 30 3C F8 00 0E 00 0F C0 7C 00 07
 00 00 00 00 00 00 00 00 00 00 00 00 00 00 00 00
 00 00 00 00 00 00 00 00 00 00 00 00 00 00 00 00
 00 00 3C 07 C0 F0 00 30 38 7C 06 0E 00 0F C0 3E
 03 0F 80 00 00 00 00 00 00 00 00 00 00 00 00 00
 00 00 00 00 00 00 00 00 00 00 00 00 00 00 00 00
 00 00 00 00 3E 23 E3 E0 00 38 78 3F 3E 1F 00 07
 80 1F 9F 0F 80 00 00 00 00 00 00 00 00 00 00 00
 00 00 00 00 00 00 00 00 00 00 00 00 00 00 00 00
 00 00 00 00 00 00 3F E1 FF C0 00 3F F0 1F FC 7F
 C0 07 80 0F FE 0F 80 00 00 00 00 00 00 00 00 00
 00 00 00 00 00 00 00 00 00 00 00 00 00 00 00 00
 00 00 00 00 00 00 00 00 1F C0 7F 80 00 3F E0 0F
 F0 7F C0 07 00 07 F8 0F 00 00 00 00 00 00 00 00
 00 00 00 00 00 00 00 00 00 00 00 00 00 00 00 00
 00 00 00 00 00 00 00 00 00 00 00 00 00 00 00 00
 00 00 00 00 00 00 00 00 00 00 00 00 00 00 00 00
 00 00 00 00 00 00 00 00 00 00 00 00 00 00 00 00
 00 00 00 00 00 00 00 00 00 00 00 00 00 00 00 00
 00 00 00 00 00 00 00 00 00 00 00 00 00 00 00 00
 00 00 00 00 00 00 00 00 00 00 00 00 00 00 00 00
 00 00 00 00 00 00 00 00 00 00 00 00 00 00 00 00
 00 00 00 00 00 00 00 00 00 00 00 00 00 00 00 00
 00 00 00 00 00 00 00 00 00 00 00 00 00 00 00 00
 00 00 00 00 00 00 00 00 00 00 00 00 00 00 00 00
 00 00 00 00 00 00 00 00 00 00 00 00 00 00 00 00
 00 00 00 00 00 00 00 00 00 00 00 00 00 00 00 00
 00 00 00 00 00 00 00 00 00 00 00 00 00 00 00 00
 00 00 00 00 00 00 00 00 00 00 00 00 00 00 00 00
 00 00 00 00 00 00 00 00 00 00 00 00 00 00 00 00
 00 00 00 00 00 00 00 00 00 00 00 00 00 00 00 00
 00 00 00 00 00 00 00 00 00 00 00 00 00 00 00 00
 00 00 00 00 00 00 00 00 00 00 00 00 00 00 00 00
 00 00 00 00 00 00 00 00 00 00 00 00 00 00 00 00
 00 00 00 00 00 00 00 00 00 00 00 00 00 00 00 00
 00 00 00 00 00 00 00 00 00 00 00 00 00 00 00 00
 00 00 00 00 00 00 00 00 00 00 00 00 00 00 00 00
 00 00 00 00 00 00 00 00 00 00 00 00 00 00 00 00
 00 00 00 00 00 00 00 00 00 00 00 00 00 00 00 00
 00 00 00 00 00 00 00 00 00 00 00 00 00 00 00 00
 00 00 00 00 00 00 00 00 00 00 00 00 00 00 00 00
 00 00 00 00 00 00 00 00 00 00 00 00 00 00 00 00
 00 00 00 00 00 00 00 00 00 00 00 00 00 00 00 00
 00 00 00 00 00 00 00 00 00 00 00 00 00 00 00 00
 00 00 00 00 00 00 00 00 00 00 00 00 00 00 00 00
 00 00 00 00 00 00 00 00 00 00 00 00 00 00 00 00
 00 00 00 00 00 00 00 00 00 00 00 00 00 00 00 00
 00 00 00 00 00 00 00 00 00 00 00 00 00 00 00 00
 00 00 00 00 00 00 00 00 00 00 00 00 00 00 00 00
 00 00 00 00 00 00 00 00 00 00 00 00 00 00 00 00
 00 00 00 00 00 00 00 00 00 00 00 00 00 00 00 00
 00 00 00 00 00 00 00 00 00 00 00 00 00 00 00 00
 00 00 00 00 00 00 00 00 00 00 00 00 00 00 00 00
 00 00 00 00 00 00 00 00 00 00 00 00 00 00 00 00
 00 00 00 00 00 00 00 00 00 00 00 00 00 00 00 00
 00 00 00 00 00 00 00 00 00 00 00 00 00 00 00 00
 00 00 00 00 00 00 00 00 00 00 00 00 00 00 00 00
 00 00 00 00 00 00 00 00 00 00 00 00 00 00 00 00
 00 00 00 00 00 00 00 00 00 00 00 00 00 00 00 00
 00 00 00 00 00 00 00 00 00 00 00 00 00 00 00 00
 00 00 00 00 00 00 00 00 00 00 00 00 00 00 00 00
 00 00 00 00 00 00 00 00 00 00 00 00 00 00 00 00
 00 00 00 00 00 00 00 00 00 00 00 00 00 00 00 00
 00 00 00 00 00 00 00 00 00 00 00 00 00 00 00 00
 00 00 00 00 00 00 00 00 00 00 00 00 00 00 00 00
 00 00 00 00 00 00 00 00 00 00 00 00 00 00 00 00
 00 00 00 00 00 00 00 00 00 00 00 00 00 00 00 00
 00 00 00 00 00 00 00 00 00 00 00 00 00 00 00 00
 00 00 00 00 00 00 00 00 00 00 00 00 00 00 00 00
 00 00 00 00 00 00 00 00 00 00 00 00 00 00 00 00
 00 00 00 00 00 00 00 00 00 00 00 00 00 00 00 00
 00 00 00 00 00 00 00 00 00 00 00 00 00 00 00 00
 00 00 00 00 00 00 00 00 00 00 00 00 00 00 00 00
 00 00 00 00 00 00 00 00 00 00 00 00 00 00 00 00
 00 00 00 00 00 00 00 00 00 00 00 00 00 00 00 00
 00 00 00 00 00 00 00 00 00 00 00 00 00 00 00 00
 00 00 00 00 00 00 00 00 00 00 00 00 00 00 00 00
 00 00 00 00 00 00 00 00 00 00 00 00 00 00 00 00
 00 00 00 00 00 00 00 00 00 00 00 00 00 00 00 00
 00 00 00 00 00 00 00 00 00 00 00 00 00 00 00 00
 00 00 00 00 00 00 00 00 00 00 00 00 00 00 00 00
 00 00 00 00 00 00 00 00 00 00 00 00 00 00 00 00
 00 00 00 00 00 00 00 00 00 00 00 00 00 00 00 00
 00 00 00 00 00 00 00 00 00 00 00 00 00 00 00 00
 00 00 00 00 00 00 00 00 00 00 00 00 00 00 00 00
 00 00 00 00 00 00 00 00 00 00 00 00 00 00 00 00
 00 00 00 00 00 00 00 00 00 00 00 00 00 00 00 00
 00 00 00 00 00 00 00 00 00 00 00 00 00 00 00 00
 00 00 00 00 00 00 00 00 00 00 00 00 00 00 00 00
 00 00 00 00 00 00 00 00 00 00 00 00 00 00 00 00
 00 00 00 00 00 00 00 00 00 00 00 00 00 00 00 00
 00 00 00 00 00 00 00 00 00 00 00 00 00 00 00 00
 00 00 00 00 00 00 00 00 00 00 00 00 00 00 00 00
 00 00 00 00 00 00 00 00 00 00 00 00 00 00 00 00
 00 00 00 00 00 00 00 00 00 00 00 00 00 00 00 00
 00 00 00 00 00 00 00 00 00 00 00 00 00 00 00 00
 00 00 00 00 00 00 00 00 00 00 00 00 00 00 00 00
 00 00 00 00 00 00 00 00 00 00 00 00 00 00 00 00
 00 00 00 00 00 00 00 00 00 00 00 00 00 00 00 00
 00 00 00 00 00 00 00 00 00 00 00 00 00 00 00 00
 00 00 00 00 00 00 00 00 00 00 00 00 00 00 00 00
 00 00 00 00 00 00 00 00 00 00 00 00 00 00 00 00
 00 00 00 00 00 00 00 00 00 00 00 00 00 00 00 00
 00 00 00 00 00 00 00 00 00 00 00 00 00 00 00 00
 00 00 00 00 00 00 00 00 00 00 00 00 00 00 00 00
 00 00 00 00 00 00 00 00 00 00 00 00 00 00 00 00
 00 00 00 00 00 00 00 00 00 00 00 00 00 00 00 00
 00 00 00 00 00 00 00 00 00 00 00 00 00 00 00 00
 00 00 00 00 00 00 00 00 00 00 00 00 00 00 00 00
 00 00 00 00 00 00 00 00 00 00 00 00 00 00 00 00
 00 00 00 00 00 00 00 00 00 00 00 00 00 00 00 00
 00 00 00 00 00 00 00 00 00 00 00 00 00 00 00 00
 00 00 00 00 00 00 00 00 00 00 00 00 00 00 00 00
 00 00 00 00 00 00 00 00 00 00 00 00 00 00 00 00
 00 00 00 00 00 00 00 00 00 00 00 00 00 00 00 00
 00 00 00 00 00 00 00 00 00 00 00 00 00 00 00 00
 00 00 00 00 00 00 00 00 00 00 00 00 00 00 00 00
 00 00 00 00 00 00 00 00 00 00 00 00 00 00 00 00
 00 00 00 00 00 00 00 00 00 00 00 00 00 00 00 00
 00 00 00 00 00 00 00 00 00 00 00 00 00 00 00 00
 00 00 00 00 00 00 00 00 00 00 00 00 00 00 00 00
 00 00 00 00 00 00 00 00 00 00 00 00 00 00 00 00
 00 00 00 00 00 00 00 00 00 00 00 00 00 00 00 00
 00 00 00 00 00 00 00 00 00 00 00 00 00 00 00 00
 00 00 00 00 00 00 00 00 00 00 00 00 00 00 00 00
 00 00 00 00 00 00 00 00 00 00 00 00 00 00 00 00
 00 00 00 00 00 00 00 00 00 00 00 00 00 00 00 00
 00 00 00 00 00 00 00 00 00 00 00 00 00 00 00 00
 00 00 00 00 00 00 00 00 00 00 00 00 00 00 00 00
 00 00 00 00 00 00 00 00 00 00 00 00 00 00 00 00
 00 00 00 00 00 00 00 00 00 00 00 00 00 00 00 00
 00 00 00 00 00 00 00 00 00 00 00 00 00 00 00 00
 00 00 00 00 00 00 00 00 00 00 00 00 00 00 00 00
 00 00 00 00 00 00 00 00 00 00 00 00 00 00 00 00
 00 00 00 00 00 00 00 00 00 00 00 00 00 00 00 00
 00 00 00 00 00 00 00 00 00 00 00 00 00 00 00 00
 00 00 00 00 00 00 00 00 00 00 00 00 00 00 00 00
 00 00 00 00 00 00 00 00
