 00 00 00 00 00 00 1C 00 00 00 00 00 00 00 00 00 00
 00 00 00 00 00 78 00 00 00 00 00 00 00 00 00 00 00
 00 00 00 00 00 00 00 00 00 00 00 00 00 00 00 00 00
 00 00 00 00 00 7C 00 00 00 00 00 00 00 00 00 00 00
 00 00 00 01 F8 00 00 00 00 00 00 00 00 00 00 00 00
 00 00 00 00 00 00 00 00 00 78 00 00 00 00 00 FF F8
 00 00 00 00 7C 00 00 00 00 00 00 00 00 00 00 00 00
 00 00 01 F8 00 00 00 00 00 00 00 00 00 00 00 00 00
 00 00 00 00 00 00 00 00 78 00 00 00 00 00 FF FE 00
 00 00 00 1C 00 00 00 00 00 00 00 00 00 00 00 00 00
 00 00 78 00 00 00 00 00 00 00 00 00 00 00 00 00 00
 00 00 00 00 00 00 00 78 00 00 00 00 00 1E 1F 00 00
 00 00 1C 00 00 00 00 00 00 00 00 00 00 00 00 00 00
 00 78 00 00 00 00 00 00 00 00 00 00 00 00 00 00 00
 00 00 00 00 00 00 38 00 00 00 00 00 1E 0F 80 00 00
 00 1C 00 00 00 00 00 00 00 00 00 00 00 00 00 00 00
 78 00 00 00 03 00 60 00 00 00 00 00 00 C0 00 00 00
 00 00 00 00 00 00 00 00 00 00 00 1E 07 80 00 00 00
 1C 00 00 00 00 00 00 00 00 00 00 00 00 00 00 00 78
 00 00 00 07 00 E0 00 00 00 00 00 01 C0 00 00 00 00
 00 00 00 00 00 00 00 00 00 00 1E 03 80 00 00 00 1C
 00 00 00 00 00 00 00 00 00 00 00 00 00 00 00 78 00
 00 00 07 00 E0 00 00 00 00 00 01 C0 00 00 00 00 00
 00 00 00 00 00 00 00 00 00 1E 03 8F 07 81 FE 1C FC
 00 03 DF 8F C0 1F E0 3C 1E 07 F8 1F C0 00 7F F0 3C
 0F 0F FB FF 0F F0 1E 7E 00 07 FE 1F E0 00 0F F7 F8
 70 FE F8 3D F8 03 F8 00 1E 03 BF 0F 83 FE 1F FE 00
 0F FF FF E0 3F F0 FC 3E 0F F8 3F F0 00 7F F8 7C 3F
 1F FF FF 1F FC 3F FF 00 0F FE 3F F8 00 1F F7 F8 70
 FF F8 FF FC 0F FF C0 1E 07 BF 0F 87 86 1F 9F 00 0F
 F3 F9 E0 78 78 FC 3E 1E 18 78 F0 00 78 3C 7C 3F 07
 01 E0 3C 3C 3F DF 00 03 C0 78 78 00 1C 31 E0 F8 39
 F8 FF 3E 0E 1F C0 1E 07 8F 03 87 06 1C 0F 00 03 C1
 E0 F0 F0 3C 3C 0E 1C 18 F0 78 00 78 1E 1C 07 07 01
 E0 38 1E 0E 07 80 03 C0 70 3C 00 3C 30 E0 F8 30 78
 3C 1E 1E 0E 00 1E 0F 0F 03 87 86 1C 07 00 03 C1 E0
 F0 F0 3C 3C 0E 1E 18 E0 38 00 78 1E 1C 07 07 01 E0
 78 0E 0E 07 80 03 C0 F0 1C 00 3C 30 F0 F8 70 78 3C
 0E 1C 0E 00 1E 1E 0F 03 87 C0 1C 07 00 03 C1 E0 F0
 E0 1C 3C 0E 1F 00 E0 38 00 78 0E 1C 07 07 01 E0 78
 0F 0E 07 80 03 C0 F0 1E 00 3E 00 F1 FC 70 78 3C 0E
 1C 0E 00 1F FC 0F 03 87 E0 1C 07 00 03 C1 E0 F1 E0
 1E 3C 0E 1F 81 FF F8 00 78 0E 1C 07 07 01 E0 70 0F
 0E 07 80 03 C0 E0 1E 00 1F 80 71 DC 60 78 3C 0E 1E
 0E 00 1F F0 0F 03 83 FC 1C 07 00 03 C1 E0 F1 E0 1E
 3C 0E 0F F1 FF F8 00 78 0E 1C 07 07 01 E0 70 0F 0E
 07 80 03 C0 E0 1E 00 0F E0 71 9C 60 78 3C 0E 1E 1E
 00 1E 00 0F 03 80 FE 1C 07 00 03 C1 E0 F1 E0 1E 3C
 0E 03 F9 E0 00 00 78 0E 1C 07 07 01 E0 70 0F 0E 07
 80 03 C0 E0 1E 00 07 F0 7B 9E E0 78 3C 0E 0F 3C 00
 1E 00 0F 03 80 3E 1C 07 00 03 C1 E0 F1 E0 1E 3C 0E
 00 F9 E0 00 00 78 0E 1C 07 07 01 E0 70 0F 0E 07 80
 03 C0 E0 1E 00 01 F8 3B 0E C0 78 3C 0E 07 F8 00 1E
 00 0F 03 80 1F 1C 07 00 03 C1 E0 F0 E0 1C 3C 0E 00
 7C E0 00 00 78 0E 1C 07 07 01 E0 78 0F 0E 07 80 03
 C0 F0 1E 00 00 78 3B 0E C0 78 3C 0E 03 E0 00 1E 00
 0F 03 86 0F 1C 07 00 03 C1 E0 F0 F0 3C 3C 0E 18 3C
 F0 00 00 78 1E 1C 07 07 01 E0 78 0E 0E 07 80 03 C0
 F0 1C 00 30 38 3F 0F C0 78 3C 0E 03 00 00 1E 00 0F
 03 86 0F 1C 07 00 03 C1 E0 F0 F0 3C 3C 0E 18 3C F0
 18 00 78 3C 1E 07 07 01 E0 38 1E 0E 07 80 03 C0 70
 3C 00 30 38 3E 07 80 78 3C 0E 07 F0 00 1E 00 07 CF
 86 0E 1C 07 00 03 C1 E0 F0 78 78 1F 3E 18 38 7C 78
 00 78 78 1F 3F 07 81 F0 3C 3C 0E 07 80 03 E0 78 78
 00 38 78 1E 07 80 78 3C 0E 07 FE 00 7F 80 07 FF E7
 FE 7F 3F C0 0F F7 FB FC 3F F0 1F FF 9F F8 3F F8 00
 7F F0 0F FF C7 F8 FF 1F F8 3F 9F E0 01 FE 3F F0 00
 3F F0 1E 07 81 FE FF 3F 87 FF 00 7F 80 03 FB E7 F8
 7F 3F C0 0F F7 FB FC 1F E0 0F EF 9F E0 1F E0 00 7F
 C0 07 E7 C3 F8 FE 07 F0 3F 9F E0 01 FC 0F E0 00 3F
 E0 1C 03 01 FE FF 3F 9E 3F 80 00 00 00 00 00 00 00
 00 00 00 00 00 00 00 00 00 00 00 00 00 00 00 00 00
 00 00 00 00 00 00 00 00 00 00 00 00 00 00 00 00 00
 00 00 00 00 00 00 1C 07 80 00 00 00 00 00 00 00 00
 00 00 00 00 00 00 00 00 00 00 00 00 00 00 00 00 00
 00 00 00 00 00 00 00 00 00 00 00 00 00 00 00 00 00
 00 00 00 00 00 3C 03 80 00 00 00 00 00 00 00 00 00
 00 00 00 00 00 00 00 00 00 00 00 00 00 00 00 00 00
 00 00 00 00 00 00 00 00 00 00 00 00 00 00 00 00 00
 00 00 00 00 3C 07 80 00 00 00 00 00 00 00 00 00 00
 00 00 00 00 00 00 00 00 00 00 00 00 00 00 00 00 00
 00 00 00 00 00 00 00 00 00 00 00 00 00 00 00 00 00
 00 00 00 3C 07 00 00 00 00 00 00 00 00 00 00 00 00
 00 00 00 00 00 00 00 00 00 00 00 00 00 00 00 00 00
 00 00 00 00 00 00 00 00 00 00 00 00 00 00 00 00 00
 00 00 1F 0E 00 00 00 00 00 00 00 00 00 00 00 00 00
 00 00 00 00 00 00 00 00 00 00 00 00 00 00 00 00 00
 00 00 00 00 00 00 00 00 00 00 00 00 00 00 00 00 00
 00 1F FC 00 00 00 00 00 00 00 00 00 00 00 00 00 00
 00 00 00 00 00 00 00 00 00 00 00 00 00 00 00 00 00
 00 00 00 00 00 00 00 00 00 00 00 00 00 00 00 00 00
 07 F0 00 00 00 00 00 00 00 00 00 00 00 00 00 00 00
 00 00 00 00 00 00 00 00 00 00 00 00 00 00 00 00 00
 00 00 00 00 00 00 00 00 00 00 00 00 00 00 00 00 00
 00 00 00 00 00 00 00 00 00 00 00 00 00 00 00 00 00
 00 00 00 00 00 00 00 00 00 00 00 00 00 00 00 00 00
 00 00 00 00 00 00 00 00 00 00 00 00 00 00 00 00 00
 00 00 00 00 1E 00 00 00 00 00 00 00 00 3C 00 00 00
 00 07 00 00 00 01 E0 F0 00 00 00 00 00 00 00 00 0F
 00 00 00 00 00 00 00 00 00 00 00 00 00 00 00 00 00
 00 00 00 7E 00 00 00 00 00 00 00 00 FC 00 00 00 00
 1F 00 00 00 07 E3 F0 00 00 00 00 00 00 00 00 3F 00
 00 00 00 00 00 00 00 00 00 00 00 00 00 00 00 00 00
 00 00 7E 00 00 00 00 00 00 00 00 FC 00 00 00 00 1F
 00 00 00 07 E3 F0 00 00 00 00 00 00 00 00 3F 00 00
 00 00 00 00 00 00 00 00 00 00 00 00 00 00 00 00 00
 00 1E 00 00 00 00 00 00 00 00 1C 00 00 00 00 07 00
 00 00 01 E0 F0 00 00 00 00 00 00 00 00 07 00 00 00
 00 00 00 00 00 00 00 00 00 00 00 00 00 00 00 00 00
 1E 00 00 00 00 00 00 00 00 1C 00 00 00 00 07 00 00
 00 01 E0 F0 00 00 00 00 00 00 00 00 07 00 00 00 00
 00 00 00 00 00 00 00 00 00 00 00 00 00 00 00 00 1E
 00 00 00 00 00 00 00 60 1C 00 00 00 00 07 00 00 00
 01 E0 F0 00 00 00 00 00 00 00 00 07 00 00 00 00 00
 00 00 00 00 00 00 00 00 00 00 00 00 00 00 00 1E 00
 00 00 00 00 00 00 E0 1C 00 00 00 00 07 00 00 00 01
 E0 F0 00 00 00 00 00 00 00 00 07 00 00 00 00 00 00
 00 00 00 00 00 00 00 00 00 00 00 00 00 00 1E 00 00
 00 00 00 00 00 E0 1C 00 00 00 00 07 00 00 00 01 E0
 F0 00 00 00 00 00 00 00 00 07 00 00 00 00 00 00 00
 00 00 00 00 00 00 00 00 00 00 FE 0C 1F 9E FE 01 FE
 07 BF 00 01 FF 1D FC 01 FC 00 07 FF 00 FF 01 E0 F0
 00 3D F0 FF 01 FF 00 FF 07 7F 00 7F 01 FE 00 00 00
 00 00 00 00 00 00 00 00 00 FE 1E 1F 9F FF 03 FF 1F
 FF 80 03 FF 1F FE 07 FE 00 07 FF 81 FF 81 E0 F0 00
 FF F1 FF 83 FF 01 FF 87 FF 81 FF 83 FE 00 00 00 00
 00 00 00 00 00 00 00 00 38 1E 0E 1F 9F 07 87 9F E7
 C0 00 E0 1F 3E 07 0F 00 07 07 C3 C3 81 E0 F0 00 FF
 F3 C3 C7 87 83 C3 C7 CF 81 C3 C7 86 00 00 00 00 00
 00 00 00 00 00 00 00 3C 3E 0E 1E 0F 07 03 87 83 C0
 00 E0 1C 0F 0E 07 00 07 03 C3 C3 C1 E0 F0 00 3E 03
 81 C7 87 83 83 C7 03 C3 81 C7 06 00 00 00 00 00 00
 00 00 00 00 00 00 3C 3F 0C 1E 07 0E 03 87 81 C0 00
 E0 1C 0F 0E 07 80 07 01 E3 C3 C1 E0 F0 00 3C 07 01
 C7 83 87 83 87 03 C3 81 E7 86 00 00 00 00 00 00 00
 00 00 00 00 00 1C 37 0C 1E 07 0E 03 87 81 C0 00 E0
 1C 0F 1E 07 80 07 01 E0 03 C1 E0 F0 00 3C 07 01 C0
 03 87 00 07 03 C7 81 E7 C0 00 00 00 00 00 00 00 00
 00 00 00 00 1C 77 1C 1E 07 0F FF 87 81 C0 00 E0 1C
 0F 1F FF 80 07 00 E0 1F C1 E0 F0 00 3C 07 FF C0 3F
 87 00 07 03 C7 FF E7 E0 00 00 00 00 00 00 00 00 00
 00 00 00 1E 77 98 1E 07 0F FF 87 81 C0 00 E0 1C 0F
 1F FF 80 07 00 E0 FF C1 E0 F0 00 3C 07 FF C1 FF 87
 00 07 03 C7 FF E3 FC 00 00 00 00 00 00 00 00 00 00
 00 00 0E 63 98 1E 07 0E 00 07 81 C0 00 E0 1C 0F 1C
 00 00 07 00 E3 F3 C1 E0 F0 00 3C 07 00 03 E3 87 00
 07 03 C7 00 00 FE 00 00 00 00 00 00 00 00 00 00 00
 00 0E E3 B8 1E 07 0E 00 07 81 C0 00 E0 1C 0F 1E 00
 00 07 00 E7 C3 C1 E0 F0 00 3C 07 00 07 83 87 00 07
 03 C7 80 00 3E 00 00 00 00 00 00 00 00 00 00 00 00
 0F C3 F0 1E 07 0F 00 07 81 C0 00 E0 1C 0F 1E 00 00
 07 01 E7 83 C1 E0 F0 00 3C 07 80 0F 03 87 80 07 03
 C7 80 00 1F 00 00 00 00 00 00 00 00 00 00 00 00 0F
 C1 F0 1E 07 0F 00 07 81 C0 00 E0 1C 0F 1E 00 00 07
 01 C7 03 C1 E0 F0 00 3C 07 80 0F 03 87 80 07 03 C7
 80 06 0F 00 00 00 00 00 00 00 00 00 00 00 00 07 C1
 F0 1E 07 07 80 87 81 C0 00 E0 1C 0F 0F 01 80 07 03
 C7 83 C1 E0 F0 00 3C 03 C0 4F 07 83 C0 47 03 C3 C0
 66 0F 00 00 00 00 00 00 00 00 00 00 00 00 07 81 E0
 1E 07 07 C3 87 81 C0 00 F0 1C 0F 0F 87 80 07 0F 87
 CF C1 E0 F0 00 3C 03 E1 C7 9F 83 FB C7 03 C3 E1 E6
 0E 00 00 00 00 00 00 00 00 00 00 00 00 07 80 E0 7F
 9F C3 FF 9F E7 F0 00 FF FF 3F C7 FF 00 07 FF 03 FF
 F7 FB FC 00 FF 01 FF C7 FF E1 FF FF CF F1 FF C7 FE
 00 00 00 00 00 00 00 00 00 00 00 00 03 80 E0 7F 9F
 C1 FE 1F E7 F0 00 7F FF 3F C1 FE 00 07 FC 01 F9 F7
 FB FC 00 FF 00 FF 03 F3 E0 FF 3F CF F0 7F 87 F8 00
 00 00 00 00 00 00 00 00 00 00 00 00 00 00 00 00 00
 00 00 00 00 00 00 00 00 00 00 00 00 00 00 00 00 00
 00 00 00 00 00 00 00 00 00 00 00 00 00 00 00 00 00
 00 00 00 00 00 00 00 00 00 00 00 00 00 00 00 00 00
 00 00 00 00 00 00 00 00 00 00 00 00 00 00 00 00 00
 00 00 00 00 00 00 00 00 00 00 00 00 00 00 00 00 00
 00 00 00 00 00 00 00 00 00 00 00 00 00 00 00 00 00
 00 00 00 00 00 00 00 00 00 00 00 00 00 00 00 00 00
 00 00 00 00 00 00 00 00 00 00 00 00 00 00 00 00 00
 00 00 00 00 00 00 00 00 00 00 00 00 00 00 00 00 00
 00 00 00 00 00 00 00 00 00 00 00 00 00 00 00 00 00
 00 00 00 00 00 00 00 00 00 00 00 00 00 00 00 00 00
 00 00 00 00 00 00 00 00 00 00 00 00 00 00 00 00 00
 00 00 00 00 00 00 00 00 00 00 00 00 00 00 00 00 00
 00 00 00 00 00 00 00 00 00 00 00 00 00 00 00 00 00
 00 00 00 00 00 00 00 00 00 00 00 00 00 00 00 00 00
 00 00 00 00 00 00 00 00 00 00 00 00 00 00 00 00 00
 00 00 00 00 00 00 00 00 00 00 00 00 00 00 00 00 00
 00 00 00 00 00 00 00 00 00 00 00 00 00 00 00 00 00
 00 00 00 00 00 00 00 00 00 00 00 00 00 00 00 00 00
 00 00 00 00 00 00 00 00 00 00 00 00 00 00 00 00 00
 00 00 00 00 00 00 00 00 00 00 00 00 00 00 00 00 00
 00 00 00 00 00 00 00 00 00 00 00 00 00 00 00 00 00
 00 00 00 00 00 00 00 00 00 00 00 00 00 00 00 00 00
 00 00 00 00 00 00 00 00 00 00 00 00 00 00 00 00 00
 00 00 00 00 00 00 00 00 00 00 00 00 00 00 00 00 00
 00 00 00 00 00 00 00 00 00 00 00 00 00 00 00 00 00
 00 00 00 00 00 00 01 E0 00 00 00 00 00 00 00 00 00
 00 00 00 00 00 00 00 00 00 00 00 00 00 00 00 00 00
 00 00 00 00 00 00 00 00 00 00 00 00 00 00 00 00 00
 00 00 00 00 00 07 E0 00 00 00 00 00 07 80 00 00 00
 00 00 00 00 00 00 00 00 00 00 00 00 00 00 00 00 00
 00 00 00 00 00 00 00 00 00 00 00 00 00 00 00 00 00
 00 00 00 00 07 E0 00 00 00 00 00 07 80 00 00 00 00
 00 00 00 00 00 00 00 00 00 00 00 00 00 00 00 00 00
 00 00 00 00 00 00 00 00 00 00 00 00 00 00 00 00 00
 00 00 00 00 E0 00 00 00 00 00 07 80 00 00 00 00 00
 00 00 00 00 00 00 00 00 00 00 00 00 00 00 00 00 00
 00 00 00 00 00 00 00 00 00 00 00 00 00 00 00 00 00
 00 00 00 E0 00 00 00 00 00 07 00 00 00 00 00 00 00
 00 00 00 00 00 00 00 00 00 00 00 00 00 00 00 00 00
 00 00 00 00 00 00 00 00 00 00 00 00 00 00 00 00 00
 00 00 E0 00 00 00 00 00 00 00 00 00 60 00 00 00 00
 00 00 00 00 00 00 00 00 00 00 00 00 00 00 00 00 00
 00 00 00 00 00 00 00 00 00 00 00 00 00 00 00 00 00
 00 E0 00 00 00 00 00 00 00 00 00 E0 00 00 00 00 00
 00 00 00 00 00 00 00 00 00 00 00 00 00 00 00 00 00
 00 00 00 00 00 00 00 00 00 00 00 00 00 00 00 00 00
 E0 00 00 00 00 00 00 00 00 00 E0 00 00 00 00 00 00
 00 00 00 00 00 00 00 00 00 00 00 00 00 00 00 00 00
 00 00 00 00 00 00 00 00 00 00 00 3C F0 7F 00 7F E0
 00 7B F8 07 F8 0F 07 9F 83 FF 00 00 00 00 00 00 00
 00 00 00 00 00 00 00 00 00 00 00 00 00 00 00 00 00
 00 00 00 00 00 00 00 00 00 00 7D F0 FF C0 FF E0 01
 FF FC 0F FE 1F 0F FF C7 FF 00 00 00 00 00 00 00 00
 00 00 00 00 00 00 00 00 00 00 00 00 00 00 00 00 00
 00 00 00 00 00 00 00 00 00 7F F1 E3 C1 E0 E0 01 FE
 7E 1E 1E 1F 0F F7 C1 E0 00 00 00 00 00 00 00 00 00
 00 00 00 00 00 00 00 00 00 00 00 00 00 00 00 00 00
 00 00 00 00 00 00 00 00 1F 03 C1 E3 C0 E0 00 38 1E
 1C 0F 07 03 81 E1 E0 00 00 00 00 00 00 00 00 00 00
 00 00 00 00 00 00 00 00 00 00 00 00 00 00 00 00 00
 00 00 00 00 00 00 00 1E 03 80 E3 80 E0 00 38 1E 3C
 07 07 03 81 E1 E0 00 00 00 00 00 00 00 00 00 00 00
 00 00 00 00 00 00 00 00 00 00 00 00 00 00 00 00 00
 00 00 00 00 00 00 1C 03 80 E7 80 E0 00 38 0F 3C 07
 87 03 81 E1 E0 00 00 00 00 00 00 00 00 00 00 00 00
 00 00 00 00 00 00 00 00 00 00 00 00 00 00 00 00 00
 00 00 00 00 00 1C 07 FF E7 00 E0 00 38 0F 38 07 87
 03 81 E1 E0 00 00 00 00 00 00 00 00 00 00 00 00 00
 00 00 00 00 00 00 00 00 00 00 00 00 00 00 00 00 00
 00 00 00 00 1C 07 FF E7 00 E0 00 38 0F 38 07 87 03
 81 E1 E0 00 00 00 00 00 00 00 00 00 00 00 00 00 00
 00 00 00 00 00 00 00 00 00 00 00 00 00 00 00 00 00
 00 00 00 1C 07 80 07 00 E0 00 38 0F 38 07 87 03 81
 E1 E0 00 00 00 00 00 00 00 00 00 00 00 00 00 00 00
 00 00 00 00 00 00 00 00 00 00 00 00 00 00 00 00 00
 00 00 1C 07 80 07 80 E0 00 38 0F 38 07 87 03 81 E1
 E0 00 00 00 00 00 00 00 00 00 00 00 00 00 00 00 00
 00 00 00 00 00 00 00 00 00 00 00 00 00 00 00 00 00
 00 1C 03 80 07 80 E0 00 38 0E 3C 07 87 03 81 E1 E0
 00 00 00 00 00 00 00 00 00 00 00 00 00 00 00 00 00
 00 00 00 00 00 00 00 00 00 00 00 00 00 00 00 00 00
 1C 03 C0 07 80 E0 00 38 1E 3C 07 07 03 81 E1 E0 00
 00 00 00 00 00 00 00 00 00 00 00 00 00 00 00 00 00
 00 00 00 00 00 00 00 00 00 00 00 00 00 00 00 00 1C
 03 C0 63 C0 E0 00 38 1E 1C 0F 07 03 81 E1 E0 3C 00
 00 00 00 00 00 00 00 00 00 00 00 00 00 00 00 00 00
 00 00 00 00 00 00 00 00 00 00 00 00 00 00 00 1C 01
 F1 E3 F3 E0 00 38 7C 1E 1E 07 03 81 E1 F0 3C 00 00
 00 00 00 00 00 00 00 00 00 00 00 00 00 00 00 00 00
 00 00 00 00 00 00 00 00 00 00 00 00 00 00 7F 80 FF
 E1 FF F8 00 3F F8 0F FC 1F EF E7 F8 FF 3C 00 00 00
 00 00 00 00 00 00 00 00 00 00 00 00 00 00 00 00 00
 00 00 00 00 00 00 00 00 00 00 00 00 00 7F 80 7F 80
 FE F8 00 3F E0 03 F8 1F EF E7 F8 FE 3C 00 00 00 00
 00 00 00 00 00 00 00 00 00 00 00 00 00 00 00 00 00
 00 00 00 00 00 00 00 00 00 00 00 00 00 00 00 00 00
 00 00 38 00 00 00 00 00 00 00 00 00 00 00 00 00 00
 00 00 00 00 00 00 00 00 00 00 00 00 00 00 00 00 00
 00 00 00 00 00 00 00 00 00 00 00 00 00 00 00 00 00
 00 38 00 00 00 00 00 00 00 00 00 00 00 00 00 00 00
 00 00 00 00 00 00 00 00 00 00 00 00 00 00 00 00 00
 00 00 00 00 00 00 00 00 00 00 00 00 00 00 00 00 00
 38 00 00 00 00 00 00 00 00 00 00 00 00 00 00 00 00
 00 00 00 00 00 00 00 00 00 00 00 00 00 00 00 00 00
 00 00 00 00 00 00 00 00 00 00 00 00 00 00 00 00 38
 00 00 00 00 00 00 00 00 00 00 00 00 00 00 00 00 00
 00 00 00 00 00 00 00 00 00 00 00 00 00 00 00 00 00
 00 00 00 00 00 00 00 00 00 00 00 00 00 00 00 38 00
 00 00 00 00 00 00 00 00 00 00 00 00 00 00 00 00 00
 00 00 00 00 00 00 00 00 00 00 00 00 00 00 00 00 00
 00 00 00 00 00 00 00 00 00 00 00 00 00 01 FF 00 00
 00 00 00 00 00 00 00 00 00 00 00 00 00 00 00 00 00
 00 00 00 00 00 00 00 00 00 00 00 00 00 00 00 00 00
 00 00 00 00 00 00 00 00 00 00 00 00 01 FF 00 00 00
 00 00 00 00 00 00 00 00 00 00 00 00 00 00 00 00 00
 00 00 00 00 00 00 00 00 00 00 00 00 00 00 00 00 00
 00 00 00 00 00 00 00 00 00 00 00 00 00 00 00 00 00
 00 00 00 00 00 00 00 00 00 00 00 00 00 00 00 00 00
 00 00 00 00 00 00 00 00 00 00 00 00 00 00 00 00 00
 00 00 00 00 00 00 00 00 00 00 00 00 00 00 00 00 00
 00 00 00 00 00 00 00 00 00 00 00 00 00 00 00 00 00
 00 00 00 00 00 00 00 00 00 00 00 00 00 00 00 00 00
 00 00 00 00 00 00 00 00 00 00 00 00 00 00 00 00 00
 00 00 00 00 00 00 00 00 00 00 00 00 00 00 00 00 00
 00 00 00 00 00 00 00 00 00 00 00 00 00 00 00 00 00
 00 00
