 00 00 00 00 00 00 00 00 00 3C 00 00 00 00 00 00
 0E 00 00 00 00 00 00 00 00 00 00 00 00 00 00 00
 00 01 FC 00 00 00 00 00 00 7E 00 00 00 00 00 00
 00 00 FF 80 00 00 00 00 00 00 01 FC 00 00 7F E0
 00 00 7E 00 00 00 00 00 00 00 00 FF 80 00 00 00
 00 00 00 00 3C 00 00 FF F0 00 00 0E 00 00 00 00
 00 00 00 00 FF 80 00 00 00 00 00 00 00 3C 00 03
 F1 F0 00 00 0E 00 00 00 00 00 00 00 00 1C 00 00
 00 00 00 00 00 00 3C 00 03 C0 70 00 00 0E 00 00
 00 00 00 00 00 00 1C 00 00 00 00 00 00 00 00 3C
 00 07 80 70 00 00 0E 00 00 00 00 00 C0 00 00 1C
 00 00 00 00 00 00 00 00 3C 00 07 80 70 00 00 0E
 00 00 00 00 01 C0 00 00 1C 00 00 00 00 00 00 00
 00 3C 00 07 80 70 00 00 0E 00 00 00 00 01 C0 00
 00 1C 00 01 FE 1F E1 FC 1F C0 3C 00 07 80 00 0F
 F0 0E 00 FF 00 3F C3 C0 00 00 1C 00 03 FF 1F E1
 FC 7F F0 3C 00 07 C0 00 1F F8 0E 03 FF 80 FF E7
 FF 00 00 1C 00 07 87 87 80 70 F0 F0 3C 00 07 E0
 00 3C 3C 0E 07 C7 C1 F1 E7 FF 00 00 1C 00 0F 03
 83 C0 61 E0 78 3C 00 03 FC 00 78 1C 0E 07 83 C3
 E1 F1 C0 00 00 1C 00 0E 03 C3 C0 E1 E0 78 3C 00
 01 FF 00 70 1E 0E 0F 01 C3 C1 E1 C0 00 00 1C 00
 1E 03 C3 C0 E3 C0 38 3C 00 00 FF C0 F0 1E 0E 0F
 01 E7 80 E1 C0 00 00 1C 00 1F FF C1 E0 C3 FF F8
 3C 00 00 3F E0 FF FE 0E 0F FF E7 80 01 C0 00 00
 1C 00 1F FF C1 E1 C3 FF F8 3C 00 00 0F F0 FF FE
 0E 1F FF E7 80 01 C0 00 00 1C 00 1F FF C1 E1 83
 FF F8 3C 00 00 03 F0 FF FE 0E 1F FF E7 80 01 C0
 00 00 1C 00 1C 00 00 F3 83 C0 00 3C 00 00 00 F8
 E0 00 0E 1E 00 07 80 01 C0 00 00 1C 00 1E 00 00
 F3 83 C0 00 3C 00 06 00 78 F0 00 0E 1E 00 07 80
 01 C0 00 00 1C 01 DE 00 00 73 03 C0 00 3C 00 06
 00 78 F0 00 0E 0E 00 07 80 01 C0 00 00 1C 01 DE
 00 00 7F 03 E0 00 3C 00 07 00 78 F0 00 0E 0F 00
 07 C0 01 C0 00 00 1C 01 DF 00 00 7E 01 E0 00 3C
 00 07 00 70 F8 00 0E 0F 80 03 C0 01 C0 00 00 1C
 03 CF 80 C0 3E 01 F0 18 3C 00 07 00 F0 7C 06 0E
 07 C0 E3 E0 31 E0 00 00 3C 03 C7 E7 C0 3E 00 FC
 78 3C 00 07 83 E0 3F 3E 1F 07 F3 E1 FD F1 F1 00
 00 FF FF C3 FF 80 3C 00 7F F9 FF 00 07 FF C0 1F
 FC 7F C3 FF C0 FF F1 FF 00 00 FF FF C1 FE 00 1C
 00 3F E1 FF 00 07 FF 80 0F F0 7F C0 FF 00 3F C0
 FE 00 00 00 00 00 00 00 00 00 00 00 00 00 00 00
 00 00 00 00 00 00 00 00 00 00 00 00 00 00 00 00
 00 00 00 00 00 00 00 00 00 00 00 00 00 00 00 00
 00 00 00 00 00 00 00 00 00 00 00 00 00 00 00 00
 00 00 00 00 00 00 00 00 00 00 00 00 00 00 00 00
 00 00 00 00 00 00 00 00 00 00 00 00 00 00 00 00
 00 00 00 00 00 00 00 00 00 00 00 00 00 00 00 00
 00 00 00 00 00 00 00 00 00 00 00 00 00 00 00 00
 00 00 00 00 00 00 00 00 00 00 00 00 00 00 00 00
 00 00 00 00 00 00 00 00 00 00 00 00 00 00 00 00
 00 00 00 00 00 00 00 00 00 00 00 00 00 00 00 00
 00 00 00 00 00 00 00 00 00 00 00 00 00 00 00 00
 00 00 00 00 00 00 00 00 00 00 00
