 00 00 00 00 00 00 00 01 C0 00 00 00 00 00 00 00
 00 3C 00 00 00 00 00 00 00 00 00 00 00 00 00 00
 0F C0 00 00 00 00 00 00 00 00 FC 00 00 00 00 00
 00 00 FF 00 07 F8 00 00 00 0F C0 00 00 00 00 FF
 C0 00 00 FC 00 00 00 00 00 00 00 FF 00 07 F8 00
 00 00 01 C0 00 00 00 03 FF E0 00 00 3C 00 00 00
 00 00 00 00 FF 00 07 F8 00 00 00 01 C0 00 00 00
 07 E3 E0 00 00 3C 00 00 00 00 00 00 00 1F 80 0F
 C0 00 00 00 01 C0 00 00 00 0F 81 E0 00 00 3C 00
 00 00 00 00 00 00 1F 80 0D C0 00 00 00 01 C0 00
 00 00 0F 00 E0 00 00 3C 00 00 00 00 01 80 00 1B
 C0 1D C0 00 00 00 01 C0 00 00 00 0F 00 E0 00 00
 3C 00 00 00 00 03 80 00 1B C0 1D C0 00 00 00 01
 C0 00 00 00 0F 00 E0 00 00 3C 00 00 00 00 03 80
 00 1B C0 19 C0 0F F0 01 FF C0 1F E0 00 0F 00 00
 1F E0 3C 01 FC 00 FF 87 80 00 19 E0 39 C0 3F F8
 03 FF C0 3F F0 00 0F 80 00 7F F0 3C 07 FF 01 FF
 DF FE 00 19 E0 39 C0 7C 7C 07 C1 C0 78 78 00 0F
 C0 00 F8 F8 3C 0F 0F 03 E3 DF FE 00 19 E0 71 C0
 F8 1E 0F 01 C0 F0 38 00 0F F0 00 F0 78 3C 1E 07
 87 83 C7 80 00 18 F0 71 C0 F0 1E 1E 01 C0 E0 3C
 00 07 FE 01 E0 38 3C 1E 07 8F 03 C7 80 00 18 F0
 71 C1 F0 0F 1E 01 C1 E0 3C 00 01 FF 01 E0 3C 3C
 3C 03 8F 03 87 80 00 18 78 E1 C1 E0 0F 1C 01 C1
 FF FC 00 00 7F C1 FF FC 3C 3F FF 8F 00 07 80 00
 18 78 E1 C1 E0 0F 3C 01 C1 FF FC 00 00 1F C3 FF
 FC 3C 3F FF 8E 00 07 80 00 18 78 C1 C1 E0 0F 3C
 01 C1 FF FC 00 00 07 E3 FF FC 3C 3F FF 8E 00 07
 80 00 18 3D C1 C1 E0 0F 3C 01 C1 C0 00 00 00 01
 E3 C0 00 3C 3C 00 0E 00 07 80 00 18 3D C1 C1 E0
 0F 3C 01 C1 E0 00 00 1C 01 E3 C0 00 3C 3C 00 0F
 00 07 80 00 18 3F 81 C1 E0 0F 3C 01 C1 E0 00 00
 1C 00 E1 C0 00 3C 3C 00 0F 00 07 80 00 18 1F 81
 C1 F0 0F 1E 01 C1 E0 00 00 1C 00 E1 E0 00 3C 3E
 00 0F 00 07 80 00 18 1F 81 C0 F0 1E 1E 01 C1 F0
 00 00 1C 01 E1 F0 00 3C 1E 00 0F 80 07 80 00 18
 1F 01 C0 F8 1E 1F 83 C0 F8 0C 00 1C 03 E0 F8 1C
 3C 1F 01 87 C0 47 80 00 3C 0F 03 E0 7C 7C 0F FF
 E0 7E 7C 00 1F 0F C0 FE 7C 3C 0F C7 83 FB C7 E6
 00 FF 0E 0F F8 3F F8 07 FF F8 3F F8 00 1F FF 80
 7F F8 FF 87 FF 81 FF E3 FE 00 FF 06 0F F8 0F F0
 03 F9 F8 1F E0 00 0F FE 00 1F E0 FF 83 FE 00 FF
 03 FC 00 00 00 00 00 00 00 00 00 00 00 00 00 00
 00 00 00 00 00 00 00 00 00 00 00 00 00 00 00 00
 00 00 00 00 00 00 00 00 00 00 00 00 00 00 00 00
 00 00 00 00 00 00 00 00 00 00 00 00 00 00 00 00
 00 00 00 00 00 00 00 00 00 00 00 00 00 00 00 00
 00 00 00 00 00 00 00 00 00 00 00 00 00 00 00 00
 00 00 00 00 00 00 00 00 00 00 00 00 00 00 00 00
 00 00 00 00 00 00 00 00 00 00 00 00 00 00 00 00
 00 00 00 00 00 00 00 00 00 00 00 00 00 00 00 00
 00 00 00 00 00 00 00 00 00 00 00 00 00 00 00 00
 00 00 00 00 00 00 00 00 00 00 00 00 00 00 00 00
 00 00 00 00 00 00 00 00 00 00 00 00 00 00 00 00
 00 00 00 00 00 00 00 00 00 00 00
