 00 FF 80 00 FF C0 0F FC 00 00 00 00 00 00 00 00
 00 00 00 00 00 00 00 00 00 03 FF E0 03 FF E0 3F
 FE 00 00 00 00 00 00 00 00 00 00 00 00 00 00 00
 00 00 0F E7 F0 07 E3 E0 7E 3E 00 00 00 00 00 00
 00 00 00 00 00 00 00 00 00 00 00 1F 80 F8 0F 81
 E0 F8 1E 00 00 00 00 00 00 00 00 00 00 00 00 00
 00 00 00 00 1E 00 7C 0F 00 E0 F0 0E 00 00 00 00
 00 00 00 00 00 00 00 00 00 00 00 00 00 3E 00 3C
 0F 00 E0 F0 0E 00 00 00 00 00 00 00 00 00 00 00
 00 00 00 00 00 00 7C 00 3E 0F 00 E0 F0 0E 00 00
 00 00 00 00 00 00 00 00 00 00 00 00 00 00 00 7C
 00 1E 0F 00 00 F0 00 00 00 00 00 00 00 00 00 00
 00 00 00 00 00 00 00 00 78 00 1F 0F 80 00 F8 00
 00 00 00 00 00 00 00 00 00 00 00 00 00 00 00 00
 00 78 00 1F 0F C0 00 FC 00 00 00 00 00 00 00 00
 00 00 00 00 00 00 00 00 00 00 F8 00 0F 0F F0 00
 FF 00 00 00 00 00 00 00 00 00 00 00 00 00 00 00
 00 00 00 F8 00 0F 07 FE 00 7F E0 00 00 00 00 00
 00 00 00 00 00 00 00 00 00 00 00 00 F8 00 0F 01
 FF 00 1F F0 00 00 00 00 00 00 00 00 00 00 00 00
 00 00 00 00 00 F8 00 0F 00 7F C0 07 FC 00 00 00
 00 00 00 00 00 00 00 00 00 00 00 00 00 00 F8 00
 0F 00 1F C0 01 FC 00 00 00 00 00 00 00 00 00 00
 00 00 00 00 00 00 00 78 00 1F 00 07 E0 00 7E 00
 00 00 00 00 00 00 00 00 00 00 00 00 00 00 00 00
 78 00 1F 00 01 E0 00 1E 00 00 00 00 00 00 00 00
 00 00 00 00 00 00 00 00 00 78 00 1E 1C 01 E1 C0
 1E 00 00 00 00 00 00 00 00 00 00 00 00 00 00 00
 00 00 7C 00 3E 1C 00 E1 C0 0E 00 00 00 00 00 00
 00 00 00 00 00 00 00 00 00 00 00 3C 00 3C 1C 00
 E1 C0 0E 00 00 00 00 00 00 00 00 00 00 00 00 00
 00 00 00 00 3E 00 7C 1C 01 E1 C0 1E 00 00 00 00
 00 00 00 00 00 00 00 00 00 00 00 00 00 1F 00 F8
 1C 03 E1 C0 3E 00 00 00 00 00 00 00 00 00 00 00
 00 00 00 00 00 00 0F C3 F0 1F 0F C1 F0 FC 00 00
 00 00 00 00 00 00 00 00 00 00 00 00 00 00 00 07
 FF E0 1F FF 81 FF F8 00 00 00 00 00 00 00 00 00
 00 00 00 00 00 00 00 00 01 FF 80 0F FE 00 FF E0
 00 00 00 00 00 00 00 00 00 00 00 00 00 00 00 00
 00 00 3C 00 00 00 00 00 00 00 00 00 00 00 00 00
 00 00 00 00 00 00 00 00 00 00 00 00 00 00 00 00
 00 00 00 00 00 00 00 00 00 00 00 00 00 00 00 00
 00 00 00 00 00 00 00 00 00 00 00 00 00 00 00 00
 00 00 00 00 00 00 00 00 00 00 00 00 00 00 00 00
 00 00 00 00 00 00 00 00 00 00 00 00 00 00 00 00
 00 00 00 00 00 00 00 00 00 00 00 00 00 00 00 00
 00 00 00 00 00 00 00 00 00 00 00 00 00 00 00 00
 00 00 00 00 00 00 00 00 00 00 00 00 00 00 00 00
 00 00 00 00 00 00 00 00 00 00 00 00 00 00 00 00
 00 00 00 00 00 00 00 00 00 00 00 00 00 00 00 00
 00 00 00 00 00 00 00 00 00 00 00 00 00 00 00 00
 00 00 00 00 00 00 00 00 00 00 00 00 00 00 00 00
 00 00 00 00 00 00 00 00 00 00 00 00 00 00 00 00
 00 00 00 00 00 00 00 00 00 00 00 00 00 00 00 00
 00 00 00 00 00 00 00 00 00 00 00
