 00 00 00 00 00 00 00 1C 00 00 00 00 00 00 00 00
 00 E0 00 00 00 00 00 00 00 00 00 00 00 00 00 00
 FC 00 00 00 00 00 00 F0 00 07 E0 00 00 00 00 00
 00 00 FF FF F8 00 00 00 00 FC 00 00 00 00 00 00
 F0 00 07 E0 00 00 00 00 00 00 00 FF FF F8 00 00
 00 00 1C 00 00 00 00 00 00 F0 00 00 E0 00 00 00
 00 00 00 00 FF FF F8 00 00 00 00 1C 00 00 00 00
 00 00 F0 00 00 E0 00 00 00 00 00 00 00 E0 78 38
 00 00 00 00 1C 00 00 00 00 00 00 60 00 00 E0 00
 00 00 00 00 00 00 E0 78 38 00 00 00 00 1C 00 00
 00 00 00 00 00 00 00 E0 00 00 00 00 00 00 00 E0
 78 38 00 00 00 00 1C 00 00 00 00 00 00 00 00 00
 E0 00 00 00 00 00 00 00 00 78 00 00 00 00 00 1C
 00 00 00 00 00 00 00 00 00 E0 00 00 00 00 00 00
 00 00 78 00 7F C3 C0 F8 1D FE 00 7F 80 7C F1 E0
 3F E0 E7 F0 00 00 00 00 00 00 00 78 00 FF CF C1
 F8 1F FF 01 FF E1 FD F7 E0 7F E0 FF F8 00 00 00
 00 00 00 00 78 01 E1 CF C1 F8 1F 1F 83 E1 F1 FF
 F7 E0 F0 E0 FF FC 00 00 00 00 00 00 00 78 01 E1
 C1 C0 78 1C 07 83 C0 F0 3F B0 E0 F0 E0 F0 7C 00
 00 00 00 00 00 00 78 01 C0 C1 C0 78 1C 07 C7 80
 78 3E 00 E0 E0 60 E0 3C 00 00 00 00 00 00 00 78
 01 E0 01 C0 78 1C 03 C7 80 78 3C 00 E0 F0 00 E0
 3C 00 00 00 00 00 00 00 78 01 F0 01 C0 78 1C 03
 C7 80 78 3C 00 E0 F8 00 E0 3C 00 00 00 00 00 00
 00 78 01 FC 01 C0 78 1C 01 CF 00 3C 3C 00 E0 FE
 00 E0 3C 00 00 00 00 00 00 00 78 00 FF 01 C0 78
 1C 01 CF 00 3C 3C 00 E0 7F 80 E0 3C 00 00 00 00
 00 00 00 78 00 3F C1 C0 78 1C 01 CF 00 3C 3C 00
 E0 1F E0 E0 3C 00 00 00 00 00 00 00 78 00 0F C1
 C0 78 1C 01 CF 00 3C 3C 00 E0 07 E0 E0 3C 00 00
 00 00 00 00 00 78 00 03 E1 C0 78 1C 03 C7 80 78
 3C 00 E0 01 F0 E0 3C 00 00 00 00 00 00 00 78 01
 81 E1 C0 78 1C 03 C7 80 78 3C 00 E0 C0 F0 E0 3C
 00 00 00 00 00 00 00 78 01 81 E1 E0 78 1C 07 87
 80 78 3C 00 E0 C0 F0 E0 3C 00 00 00 00 00 00 00
 78 01 81 C1 E0 78 1C 0F 83 C0 F0 3C 00 E0 C0 E0
 E0 3C 00 00 00 00 00 00 00 F8 01 C3 C1 FF F8 1C
 3F 03 E1 F0 3C 01 F0 E1 E1 F0 3C 00 00 00 00 00
 00 03 FF 01 FF 80 FF FE 1F FE 01 FF E1 FF 87 FC
 FF C7 FC FF 80 00 00 00 00 00 03 FF 01 FF 00 7F
 7E 1F F0 00 7F 81 FF 87 FC FF 87 FC FF 80 00 00
 00 00 00 00 00 00 00 00 00 00 00 00 00 00 00 00
 00 00 00 00 00 00 00 00 00 00 00 00 00 00 00 00
 00 00 00 00 00 00 00 00 00 00 00 00 00 00 00 00
 00 00 00 00 00 00 00 00 00 00 00 00 00 00 00 00
 00 00 00 00 00 00 00 00 00 00 00 00 00 00 00 00
 00 00 00 00 00 00 00 00 00 00 00 00 00 00 00 00
 00 00 00 00 00 00 00 00 00 00 00 00 00 00 00 00
 00 00 00 00 00 00 00 00 00 00 00 00 00 00 00 00
 00 00 00 00 00 00 00 00 00 00 00 00 00 00 00 00
 00 00 00 00 00 00 00 00 00 00 00 00 00 00 00 00
 00 00 00 00 00 00 00 00 00 00 00 00 00 00 00 00
 00 00 00 00 00 00 00 00 00 00 00 00 00 00 00 00
 00 00 00 00 00 00 00 00 00 00 00
