 00 00 00 00 00 00 00 00 00 00 00 00 00 00 00 00
 00 0F C0 00 00 00 00 00 00 00 00 00 00 00 00 00
 00 00 00 00 00 00 00 00 00 00 00 00 00 00 00 00
 00 00 00 00 00 00 00 00 00 E0 00 03 80 00 00 00
 00 00 00 1F E0 00 00 00 00 00 00 00 00 00 00 00
 00 00 00 00 00 00 00 00 00 00 00 00 00 00 00 00
 00 00 00 00 FF 00 E0 3F C0 00 01 F0 00 07 C0 00
 00 00 00 00 00 3B E0 00 00 00 00 00 00 00 00 00
 00 00 00 00 00 00 00 00 00 00 00 00 00 00 00 00
 00 00 00 00 00 00 FF 01 E0 3F C0 00 01 F0 00 07
 C0 00 00 00 00 00 00 70 C0 00 00 00 00 00 00 00
 00 00 00 00 00 00 00 00 00 00 00 00 00 00 00 00
 00 00 00 00 00 00 00 00 FF 01 E0 3F C0 00 01 E0
 00 07 80 00 00 00 00 00 00 70 00 00 00 00 00 00
 00 00 00 00 00 00 00 00 00 00 00 00 00 00 00 00
 00 00 00 00 00 00 00 00 00 00 3C 01 F0 0E 00 00
 00 C0 00 03 00 00 00 00 00 00 00 F0 00 00 00 00
 00 00 00 00 00 00 00 00 00 00 00 00 00 00 00 00
 00 00 00 00 00 00 00 00 00 00 00 00 3C 03 F0 0E
 00 00 00 00 30 00 00 00 00 00 00 00 00 F0 00 00
 00 00 00 00 00 00 00 00 00 00 00 00 00 00 00 00
 00 00 00 00 00 C0 00 00 00 00 00 00 00 00 1E 03
 F0 0E 00 00 00 00 70 00 00 00 00 00 00 00 00 F0
 00 00 00 00 00 00 00 00 00 00 00 00 00 00 00 00
 00 00 00 00 00 00 01 C0 00 00 00 00 00 00 00 00
 1E 03 F8 1C 00 00 00 00 70 00 00 00 00 00 00 00
 00 F0 00 00 00 00 00 00 00 00 00 00 00 00 00 00
 00 00 00 00 00 00 00 00 01 C0 00 00 00 00 00 00
 00 00 1E 07 78 1C 03 FE 01 E0 F0 07 81 E7 E0 07
 F8 00 00 F0 03 FC 03 E7 80 00 7F 80 79 FC 07 BF
 80 0F F0 0F 3F 80 1F E0 3C FE 03 C0 00 00 00 00
 00 00 00 00 1F 07 78 1C 07 FF 07 E3 FF DF 8F FF
 F0 0F FF E0 03 FF 8F FF 0F EF 80 01 FF E1 FF FE
 1F FF E0 3F F8 3F FF C0 3F F0 FF FF 0F FF 00 00
 00 00 00 00 00 00 0F 07 3C 1C 0F 0F 07 E3 FF DF
 8F FF F8 1E 3F E0 03 FF 9F 0F 8F FF 80 03 E1 F1
 FF FF 1F FF E0 7C 7C 3F FF E0 78 78 FF FF 8F FF
 00 00 00 00 00 00 00 00 0F 0E 3C 38 0F 07 81 E0
 F0 07 81 F0 78 3C 1E 00 00 F0 1E 07 81 FD 80 03
 C0 F0 3C 1F 07 C1 F0 F8 1E 07 83 E0 F0 38 1E 0F
 83 C0 00 00 00 00 00 00 00 00 0F 0E 3C 38 0F 07
 81 E0 F0 07 81 E0 78 3C 0F 00 00 F0 3C 03 C1 F0
 00 07 80 78 38 0F 87 80 F0 F0 1E 07 01 E0 E0 3C
 1C 07 83 C0 00 00 00 00 00 00 00 00 07 8E 1E 38
 0F 07 81 E0 F0 07 81 E0 38 3C 0F 00 00 F0 3C 03
 C1 E0 00 07 80 78 38 07 87 80 79 F0 0F 07 01 E1
 E0 3C 1C 07 83 C0 00 00 00 00 00 00 00 00 07 9E
 1E 78 00 0F 81 E0 F0 07 81 E0 38 3C 0F 00 00 F0
 3C 03 C1 E0 00 07 80 78 38 07 87 80 79 E0 0F 07
 01 E1 FF FC 1C 07 83 C0 00 00 00 00 00 00 00 00
 07 9C 1E 70 00 7F 81 E0 F0 07 81 E0 38 3C 0F 00
 00 F0 78 01 E1 E0 00 0F 00 3C 38 03 87 80 79 E0
 0F 07 01 E1 FF FC 1C 07 83 C0 00 00 00 00 00 00
 00 00 07 9C 1E 70 03 FF 81 E0 F0 07 81 E0 38 3E
 1E 00 00 F0 78 01 E1 E0 00 0F 00 3C 38 03 87 80
 79 E0 0F 07 01 E1 FF FC 1C 07 83 C0 00 00 00 00
 00 00 00 00 03 DC 0F 70 0F E7 81 E0 F0 07 81 E0
 38 1F 3E 00 00 F0 78 01 E1 E0 00 0F 00 3C 38 03
 87 80 79 E0 0F 07 01 E1 C0 00 1C 07 83 C0 00 00
 00 00 00 00 00 00 03 F8 0F E0 1F 07 81 E0 F0 07
 81 E0 38 0F FC 00 00 F0 78 01 E1 E0 00 0F 00 3C
 38 07 87 80 79 E0 0F 07 01 E1 E0 00 1C 07 83 C0
 00 00 00 00 00 00 00 00 03 F8 0F E0 1E 07 81 E0
 F0 07 81 E0 38 03 F0 00 00 F0 3C 03 C1 E0 00 07
 80 78 38 07 87 80 79 E0 0F 07 01 E1 E0 00 1C 07
 83 C0 00 00 00 00 00 00 00 00 03 F8 07 E0 1C 07
 81 E0 F0 07 81 E0 38 07 00 00 00 F0 3C 03 C1 E0
 00 07 80 78 38 07 87 80 71 F0 0F 07 01 E1 E0 00
 1C 07 83 C0 00 00 00 00 00 00 00 00 01 F0 07 E0
 1C 07 81 E0 F0 07 81 E0 38 07 00 00 00 F0 3C 03
 C1 E0 00 07 80 78 38 0F 07 80 F0 F0 1E 07 01 E1
 F0 00 1C 07 83 C0 1C 07 01 C0 00 00 00 00 01 F0
 07 C0 1E 0F 81 E0 F0 07 81 E0 38 07 E0 00 00 F0
 1E 07 81 E0 00 03 C0 F0 38 1F 07 81 E0 F8 1E 07
 01 E0 F8 0C 1C 07 83 C0 3E 0F 83 E0 00 00 00 00
 01 F0 03 C0 1F 3F 81 E0 FC C7 81 E0 7C 07 FE 00
 00 F0 1F 0F 81 E0 00 03 E1 F0 3C 3E 07 C7 E0 7C
 7C 0F 81 E0 7E 7C 3E 07 83 F3 3E 0F 83 E0 00 00
 00 00 00 E0 03 C0 1F FF E7 F8 7F DF EF F9 FF 0F
 FF 80 07 FC 0F FF 0F FC 00 01 FF E0 3F FC 07 FF
 C0 3F F8 3F E7 F8 3F F8 FF 9F E1 FF 3E 0F 83 E0
 00 00 00 00 00 E0 03 C0 0F E7 E7 F8 7F 9F EF F9
 FF 3E 3F 80 07 FC 03 FC 0F FC 00 00 7F 80 3F F0
 07 FF 00 0F F0 3F E7 F8 1F E0 FF 9F E1 FE 1E 07
 81 E0 00 00 00 00 00 00 00 00 00 00 00 00 00 00
 00 00 00 78 07 C0 00 00 00 00 00 00 00 00 00 00
 38 00 07 80 00 00 00 00 00 00 00 00 00 00 00 00
 00 00 00 00 00 00 00 00 00 00 00 00 00 00 00 00
 00 00 00 00 00 78 03 C0 00 00 00 00 00 00 00 00
 00 00 38 00 07 80 00 00 00 00 00 00 00 00 00 00
 00 00 00 00 00 00 00 00 00 00 00 00 00 00 00 00
 00 00 00 00 00 00 00 78 03 C0 00 00 00 00 00 00
 00 00 00 00 38 00 07 80 00 00 00 00 00 00 00 00
 00 00 00 00 00 00 00 00 00 00 00 00 00 00 00 00
 00 00 00 00 00 00 00 00 00 78 07 80 00 00 00 00
 00 00 00 00 00 00 38 00 07 80 00 00 00 00 00 00
 00 00 00 00 00 00 00 00 00 00 00 00 00 00 00 00
 00 00 00 00 00 00 00 00 00 00 00 7C 0F 00 00 00
 00 00 00 00 00 00 00 00 38 00 07 80 00 00 00 00
 00 00 00 00 00 00 00 00 00 00 00 00 00 00 00 00
 00 00 00 00 00 00 00 00 00 00 00 00 00 3F FE 00
 00 00 00 00 00 00 00 00 00 01 FF 00 17 B0 00 00
 00 00 00 00 00 00 00 00 00 00 00 00 00 00 00 00
 00 00 00 00 00 00 00 00 00 00 00 00 00 00 00 1F
 FC 00 00 00 00 00 00 00 00 00 00 01 FF 00 1F F0
 00 00 00 00 00 00 00 00 00 00 00 00 00 00 00 00
 00 00 00 00 00 00 00 00 00 00 00 00 00 00 00 00
 00 07 E0 00 00 00 00 00 00 00 00 00 00 01 FF 00
 1F F0 00 00 00 00 00 00 00 00 00 00 00 00 00 00
 00 00 00 00 00 00 00 00 00 00 00 00 00 00 00 00
 00 00 00 00 00 00 00 00 00 00 00 00 00 00 00 00
 00 00 00 00 00 00 00 00 00 00 00 00 00 00 00 00
 00 00 00 00 00 00 00 00 00 00 00 00 00 00 00 00
 00 00 00 00 00 00 00 00 00 00 00 00 00 00 00 00
 00 00 00 00 00 00 00 00 00 00 00 00 00 00 00 00
 00 00 00 00 00 00 00 00 00 00 00 00 00 00 00 00
 00 00 00 00 00 00 00 00 00 00 00 00 00 00 00 00
 00 00 00 00 00 00 00 00 00 00 00 00 00 00 00 00
 00 00 00 00 00 00 00 00 00 00 00 00 00 00 00 00
 00 00 00 00 00 00 00 00 00 00 00 00 00 00 00 00
 00 00 00 00 00 00 00 00 00 00 00 00 00 00 00 00
 00 00 00 00 00 00 00 00 00 00 00 00 00 00 00 00
 00 00 00 00 00 00 00 00 00 00 00 00 00 00 00 00
 00 00 00 00 00 00 00 00 00 00 00 00 00 00 00 00
 00 00 00 00 00 00 00 00 00 00 00 00 00 00 00 00
